FoamFile
{
    version         2;
    format          ascii;
    class           dictionary;
    location        "system";
    object          controlDict;
}

application     blockMesh;

startFrom       latestTime;

startTime       0;

stopAt          endTime;

endTime         10;

deltaT          1;

writeControl    timeStep;

writeInterval   1;

purgeWrite      0;

writeFormat     ascii;

writePrecision  7;

writeCompression off;

timeFormat      general;

timePrecision   6;

runTimeModifiable yes;

functions
{
}
