
/*--------------------------------*- C++ -*----------------------------------*/

// File was generated by SwiftBlock, a Blender 3D addon.

FoamFile
{
    version     2.0;
    format      ascii;
    class       dictionary;
    object      blockMeshDict;
}
// * * * * * * * * * * * * * * * * * * * * * * * * * * * * * * * * * * * * * //

deltaT          1;

writeInterval   1;



// ************************************************************************* //


geometry
{
   walls_inner
   {
      type triSurfaceMesh;
      file "walls_inner.stl";
   }
   walls_outer
   {
      type triSurfaceMesh;
      file "walls_outer.stl";
   }
}
vertices
(
    project (0.7375232577323914 -0.7375233173370361 -0.29999998211860657) (walls_outer)
    (0.615041971206665 0.615041971206665 -0.29999998211860657)
    (1.1527528762817383 -0.8988792896270752 -0.29999998211860657)
    project (0.5986624956130981 0.5986624956130981 -0.29999998211860657) (walls_outer)
    project (0.6242053508758545 -0.6242053508758545 -0.29999998211860657) (walls_outer)
    project (0.9644743204116821 -0.5810085535049438 -0.29999998211860657) (walls_outer)
    (1.3546631336212158 -0.2523813247680664 -0.29999998211860657)
    project (0.937212347984314 -0.04844449460506439 -0.29999998211860657) (walls_outer)
    project (0.577168345451355 0.577168345451355 -0.29999998211860657) (walls_outer)
    project (0.5832119584083557 -0.5832119584083557 -0.29999998211860657) (walls_outer)
    project (0.8311070203781128 -0.0003624558448791504 -0.29999998211860657) (walls_outer)
    project (0.6594101190567017 0.027090102434158325 -0.009028001688420773) (walls_outer)
    project (0.46656957268714905 -0.46656960248947144 -0.009028001688420773) (walls_outer)
    project (0.46173474192619324 0.4617346525192261 -0.009028001688420773) (walls_outer)
    project (0.44231897592544556 0.44231894612312317 0.4999999701976776) (walls_outer)
    project (0.16419348120689392 0.16419348120689392 0.4999999701976776) (walls_inner)
    project (0.6250061988830566 0.025676719844341278 0.4999999701976776) (walls_outer)
    project (0.2320089340209961 0.009531475603580475 0.4999999701976776) (walls_inner)
    project (0.44231894612312317 -0.44231897592544556 0.4999999701976776) (walls_outer)
    project (0.16419348120689392 -0.16419348120689392 0.4999999701976776) (walls_inner)
    project (0.7375232577323914 -0.7375233173370361 -0.6999999284744263) (walls_inner)
    (0.615041971206665 0.615041971206665 -0.6999999284744263)
    (1.1527528762817383 -0.8988792896270752 -0.6999999284744263)
    project (0.549087643623352 0.549087643623352 -0.6999999284744263) (walls_inner)
    project (0.5575782656669617 -0.5575782656669617 -0.6999999284744263) (walls_inner)
    project (0.9644743204116821 -0.5810085535049438 -0.6999999284744263) (walls_inner)
    (1.3546631336212158 -0.2523813247680664 -0.6999999284744263)
    project (0.8487578630447388 -0.028409935534000397 -0.699999988079071) (walls_inner)
    project (0.46149158477783203 0.46149155497550964 -0.6999999284744263) (walls_inner)
    project (0.4663239121437073 -0.46632400155067444 -0.6999999284744263) (walls_inner)
    project (0.666301965713501 0.012915641069412231 -0.6999999284744263) (walls_inner)
    project (0.3154939115047455 0.01296125166118145 -0.3813152313232422) (walls_inner)
    project (0.22322960197925568 -0.22322961688041687 -0.3813152313232422) (walls_inner)
    project (0.22091637551784515 0.22091633081436157 -0.3813152313232422) (walls_inner)
    project (0.16349472105503082 -0.16349472105503082 -0.08324509114027023) (walls_inner)
    project (0.16226333379745483 0.16226333379745483 -0.08324512094259262) (walls_inner)
    project (0.23105649650096893 0.009492356330156326 -0.08324512094259262) (walls_inner)
    project (0.5040838122367859 -0.5040839314460754 -0.17136448621749878) (walls_outer)
    project (0.7124296426773071 0.02926831692457199 -0.17136448621749878) (walls_outer)
    project (0.47183772921562195 0.4718376398086548 -0.20000000298023224) (walls_outer)
    (0.9105538725852966 -0.038084760308265686 -0.3994934856891632)
    (0.8092517852783203 0.001282133162021637 -0.3975686728954315)
    (0.6242053508758545 -0.6242053508758545 -0.3999999761581421)
    (0.7375232577323914 -0.7375233173370361 -0.3999999761581421)
    (0.9644743204116821 -0.5810085535049438 -0.3999999761581421)
    (1.1527528762817383 -0.8988792896270752 -0.3999999761581421)
    (1.3546631336212158 -0.2523813247680664 -0.3999999761581421)
    (0.615041971206665 0.615041971206665 -0.3999999761581421)
    (0.5868605375289917 0.5868605375289917 -0.3999999761581421)
    (0.5676898956298828 -0.5676898956298828 -0.3971368670463562)
    (0.5435064435005188 0.5435064435005188 -0.37126851081848145)
    (0.37988796830177307 0.3798878788948059 -0.03598989546298981)
    (0.38165634870529175 0.38165631890296936 0.4999999701976776)
    (0.4213104844093323 -0.42131057381629944 -0.25284314155578613)
    (0.5910679697990417 0.023701578378677368 -0.2559753954410553)
    (0.5365431904792786 0.021588146686553955 -0.036139488220214844)
    (0.4159772992134094 0.41597726941108704 -0.2525772750377655)
    (0.384762704372406 -0.38476279377937317 -0.03632958605885506)
    (0.3818448781967163 -0.38184496760368347 0.4999999701976776)
    (0.5359867811203003 0.021815523505210876 0.4999999701976776)
    (0.1938464641571045 0.1938464492559433 0.4999999701976776)
    (0.27542880177497864 0.011442791670560837 0.4999999701976776)
    (0.19381746649742126 -0.19381751120090485 0.4999999701976776)
    (0.8758824467658997 -0.033487848937511444 -0.6010078191757202)
    (0.6942017078399658 0.010818976908922195 -0.6039936542510986)
    (0.7375232577323914 -0.7375233173370361 -0.5999999046325684)
    (0.5809309482574463 -0.5809309482574463 -0.5999999046325684)
    (1.1527528762817383 -0.8988792896270752 -0.5999999046325684)
    (0.9644743204116821 -0.5810085535049438 -0.5999999046325684)
    (0.615041971206665 0.615041971206665 -0.5999999046325684)
    (1.3546631336212158 -0.2523813247680664 -0.5999999046325684)
    (0.5575423836708069 0.5575423836708069 -0.5999999046325684)
    (0.48608437180519104 -0.4860844016075134 -0.6046833395957947)
    (0.4732241928577423 0.47322410345077515 -0.5935289859771729)
    (0.27887558937072754 -0.27887558937072754 -0.32891353964805603)
    (0.3986089825630188 0.016916189342737198 -0.3258513808250427)
    (0.27695590257644653 0.27695590257644653 -0.3292253017425537)
    (0.19102083146572113 -0.19102084636688232 -0.07013870030641556)
    (0.19017992913722992 0.19017988443374634 -0.07033985108137131)
    (0.2761220932006836 0.011687859892845154 -0.0691484734416008)
    (1.0287306308746338 -1.0287306308746338 -0.6999999284744263)
    (1.0287306308746338 -1.0287306308746338 -0.5999999046325684)
    (1.0287306308746338 -1.0287306308746338 -0.29999998211860657)
    (1.0287306308746338 -1.0287306308746338 -0.3999999761581421)
);
edges
(
    projectCurve 7 10 (walls_outer)
    projectCurve 0 4 (walls_outer)
    projectCurve 4 9 (walls_outer)
    projectCurve 0 5 (walls_outer)
    projectCurve 5 7 (walls_outer)
    projectCurve 3 8 (walls_outer)
    projectCurve 4 7 (walls_outer)
    projectCurve 9 10 (walls_outer)
    projectCurve 8 10 (walls_outer)
    projectCurve 3 7 (walls_outer)
    projectCurve 13 14 (walls_outer)
    projectCurve 9 37 (walls_outer)
    projectCurve 10 38 (walls_outer)
    projectCurve 13 11 (walls_outer)
    projectCurve 13 39 (walls_outer)
    projectCurve 12 11 (walls_outer)
    projectCurve 12 18 (walls_outer)
    projectCurve 11 16 (walls_outer)
    projectCurve 14 16 (walls_outer)
    projectCurve 18 16 (walls_outer)
    projectCurve 12 37 (walls_outer)
    projectCurve 11 38 (walls_outer)
    projectCurve 8 39 (walls_outer)
    projectCurve 39 38 (walls_outer)
    projectCurve 37 38 (walls_outer)
    projectCurve 15 17 (walls_inner)
    projectCurve 19 17 (walls_inner)
    projectCurve 27 30 (walls_inner)
    projectCurve 20 24 (walls_inner)
    projectCurve 24 29 (walls_inner)
    projectCurve 20 25 (walls_inner)
    projectCurve 25 27 (walls_inner)
    projectCurve 23 28 (walls_inner)
    projectCurve 24 27 (walls_inner)
    projectCurve 29 30 (walls_inner)
    projectCurve 28 30 (walls_inner)
    projectCurve 23 27 (walls_inner)
    projectCurve 29 32 (walls_inner)
    projectCurve 30 31 (walls_inner)
    projectCurve 33 31 (walls_inner)
    projectCurve 28 33 (walls_inner)
    projectCurve 32 31 (walls_inner)
    projectCurve 34 32 (walls_inner)
    projectCurve 35 15 (walls_inner)
    projectCurve 36 17 (walls_inner)
    projectCurve 34 19 (walls_inner)
    projectCurve 35 33 (walls_inner)
    projectCurve 36 31 (walls_inner)
    projectCurve 35 36 (walls_inner)
    projectCurve 34 36 (walls_inner)
);
faces
(
    project (9 10 7 4) walls_outer
    project (8 3 7 10) walls_outer
    project (4 7 5 0) walls_outer
    project (16 11 12 18) walls_outer
    project (14 13 11 16) walls_outer
    project (37 12 11 38) walls_outer
    project (38 11 13 39) walls_outer
    project (10 38 39 8) walls_outer
    project (9 37 38 10) walls_outer
    project (29 24 27 30) walls_inner
    project (28 30 27 23) walls_inner
    project (24 20 25 27) walls_inner
    project (34 36 17 19) walls_inner
    project (36 35 15 17) walls_inner
    project (29 30 31 32) walls_inner
    project (30 28 33 31) walls_inner
    project (31 33 35 36) walls_inner
    project (32 31 36 34) walls_inner
);
blocks
(
// block id 0 
hex (0 5 2 82 43 44 45 83)  (10 10 10) edgeGrading (
(
 (0 0 1) (1 10 1) (0 0 1) 
)
(
 (0 0 1) (1 10 1) (0 0 1) 
)
(
 (0 0 1) (1 10 1) (0 0 1) 
)
(
 (0 0 1) (1 10 1) (0 0 1) 
)
(
 (0 0 1) (1 10 1) (0 0 1) 
)
(
 (0 0 1) (1 10 1) (0 0 1) 
)
(
 (0 0 1) (1 10 1) (0 0 1) 
)
(
 (0 0 1) (1 10 1) (0 0 1) 
)
(
 (0 0 1) (1 10 1) (0 0 1) 
)
(
 (0 0 1) (1 10 1) (0 0 1) 
)
(
 (0 0 1) (1 10 1) (0 0 1) 
)
(
 (0 0 1) (1 10 1) (0 0 1) 
)
)
// block id 1 
hex (0 4 7 5 43 42 40 44)  (10 10 10) edgeGrading (
(
 (0 0 1) (1 10 1) (0 0 1) 
)
(
 (0 0 1) (1 10 1) (0 0 1) 
)
(
 (0 0 1) (1 10 1) (0 0 1) 
)
(
 (0 0 1) (1 10 1) (0 0 1) 
)
(
 (0 0 1) (1 10 1) (0 0 1) 
)
(
 (0 0 1) (1 10 1) (0 0 1) 
)
(
 (0 0 1) (1 10 1) (0 0 1) 
)
(
 (0 0 1) (1 10 1) (0 0 1) 
)
(
 (0 0 1) (1 10 1) (0 0 1) 
)
(
 (0 0 1) (1 10 1) (0 0 1) 
)
(
 (0 0 1) (1 10 1) (0 0 1) 
)
(
 (0 0 1) (1 10 1) (0 0 1) 
)
)
// block id 2 
hex (1 6 7 3 47 46 40 48)  (10 10 10) edgeGrading (
(
 (0 0 1) (1 10 1) (0 0 1) 
)
(
 (0 0 1) (1 10 1) (0 0 1) 
)
(
 (0 0 1) (1 10 1) (0 0 1) 
)
(
 (0 0 1) (1 10 1) (0 0 1) 
)
(
 (0 0 1) (1 10 1) (0 0 1) 
)
(
 (0 0 1) (1 10 1) (0 0 1) 
)
(
 (0 0 1) (1 10 1) (0 0 1) 
)
(
 (0 0 1) (1 10 1) (0 0 1) 
)
(
 (0 0 1) (1 10 1) (0 0 1) 
)
(
 (0 0 1) (1 10 1) (0 0 1) 
)
(
 (0 0 1) (1 10 1) (0 0 1) 
)
(
 (0 0 1) (1 10 1) (0 0 1) 
)
)
// block id 3 
hex (2 5 7 6 45 44 40 46)  (10 10 10) edgeGrading (
(
 (0 0 1) (1 10 1) (0 0 1) 
)
(
 (0 0 1) (1 10 1) (0 0 1) 
)
(
 (0 0 1) (1 10 1) (0 0 1) 
)
(
 (0 0 1) (1 10 1) (0 0 1) 
)
(
 (0 0 1) (1 10 1) (0 0 1) 
)
(
 (0 0 1) (1 10 1) (0 0 1) 
)
(
 (0 0 1) (1 10 1) (0 0 1) 
)
(
 (0 0 1) (1 10 1) (0 0 1) 
)
(
 (0 0 1) (1 10 1) (0 0 1) 
)
(
 (0 0 1) (1 10 1) (0 0 1) 
)
(
 (0 0 1) (1 10 1) (0 0 1) 
)
(
 (0 0 1) (1 10 1) (0 0 1) 
)
)
// block id 4 
hex (48 50 41 40 3 8 10 7)  (10 10 10) edgeGrading (
(
 (0 0 1) (1 10 1) (0 0 1) 
)
(
 (0 0 1) (1 10 1) (0 0 1) 
)
(
 (0 0 1) (1 10 1) (0 0 1) 
)
(
 (0 0 1) (1 10 1) (0 0 1) 
)
(
 (0 0 1) (1 10 1) (0 0 1) 
)
(
 (0 0 1) (1 10 1) (0 0 1) 
)
(
 (0 0 1) (1 10 1) (0 0 1) 
)
(
 (0 0 1) (1 10 1) (0 0 1) 
)
(
 (0 0 1) (1 10 1) (0 0 1) 
)
(
 (0 0 1) (1 10 1) (0 0 1) 
)
(
 (0 0 1) (1 10 1) (0 0 1) 
)
(
 (0 0 1) (1 10 1) (0 0 1) 
)
)
// block id 5 
hex (4 9 10 7 42 49 41 40)  (10 10 10) edgeGrading (
(
 (0 0 1) (1 10 1) (0 0 1) 
)
(
 (0 0 1) (1 10 1) (0 0 1) 
)
(
 (0 0 1) (1 10 1) (0 0 1) 
)
(
 (0 0 1) (1 10 1) (0 0 1) 
)
(
 (0 0 1) (1 10 1) (0 0 1) 
)
(
 (0 0 1) (1 10 1) (0 0 1) 
)
(
 (0 0 1) (1 10 1) (0 0 1) 
)
(
 (0 0 1) (1 10 1) (0 0 1) 
)
(
 (0 0 1) (1 10 1) (0 0 1) 
)
(
 (0 0 1) (1 10 1) (0 0 1) 
)
(
 (0 0 1) (1 10 1) (0 0 1) 
)
(
 (0 0 1) (1 10 1) (0 0 1) 
)
)
// block id 6 
hex (8 10 38 39 50 41 54 56)  (10 10 10) edgeGrading (
(
 (0 0 1) (1 10 1) (0 0 1) 
)
(
 (0 0 1) (1 10 1) (0 0 1) 
)
(
 (0 0 1) (1 10 1) (0 0 1) 
)
(
 (0 0 1) (1 10 1) (0 0 1) 
)
(
 (0 0 1) (1 10 1) (0 0 1) 
)
(
 (0 0 1) (1 10 1) (0 0 1) 
)
(
 (0 0 1) (1 10 1) (0 0 1) 
)
(
 (0 0 1) (1 10 1) (0 0 1) 
)
(
 (0 0 1) (1 10 1) (0 0 1) 
)
(
 (0 0 1) (1 10 1) (0 0 1) 
)
(
 (0 0 1) (1 10 1) (0 0 1) 
)
(
 (0 0 1) (1 10 1) (0 0 1) 
)
)
// block id 7 
hex (49 41 54 53 9 10 38 37)  (10 10 10) edgeGrading (
(
 (0 0 1) (1 10 1) (0 0 1) 
)
(
 (0 0 1) (1 10 1) (0 0 1) 
)
(
 (0 0 1) (1 10 1) (0 0 1) 
)
(
 (0 0 1) (1 10 1) (0 0 1) 
)
(
 (0 0 1) (1 10 1) (0 0 1) 
)
(
 (0 0 1) (1 10 1) (0 0 1) 
)
(
 (0 0 1) (1 10 1) (0 0 1) 
)
(
 (0 0 1) (1 10 1) (0 0 1) 
)
(
 (0 0 1) (1 10 1) (0 0 1) 
)
(
 (0 0 1) (1 10 1) (0 0 1) 
)
(
 (0 0 1) (1 10 1) (0 0 1) 
)
(
 (0 0 1) (1 10 1) (0 0 1) 
)
)
// block id 8 
hex (11 12 18 16 55 57 58 59)  (10 10 10) edgeGrading (
(
 (0 0 1) (1 10 1) (0 0 1) 
)
(
 (0 0 1) (1 10 1) (0 0 1) 
)
(
 (0 0 1) (1 10 1) (0 0 1) 
)
(
 (0 0 1) (1 10 1) (0 0 1) 
)
(
 (0 0 1) (1 10 1) (0 0 1) 
)
(
 (0 0 1) (1 10 1) (0 0 1) 
)
(
 (0 0 1) (1 10 1) (0 0 1) 
)
(
 (0 0 1) (1 10 1) (0 0 1) 
)
(
 (0 0 1) (1 10 1) (0 0 1) 
)
(
 (0 0 1) (1 10 1) (0 0 1) 
)
(
 (0 0 1) (1 10 1) (0 0 1) 
)
(
 (0 0 1) (1 10 1) (0 0 1) 
)
)
// block id 9 
hex (55 57 53 54 11 12 37 38)  (10 10 10) edgeGrading (
(
 (0 0 1) (1 10 1) (0 0 1) 
)
(
 (0 0 1) (1 10 1) (0 0 1) 
)
(
 (0 0 1) (1 10 1) (0 0 1) 
)
(
 (0 0 1) (1 10 1) (0 0 1) 
)
(
 (0 0 1) (1 10 1) (0 0 1) 
)
(
 (0 0 1) (1 10 1) (0 0 1) 
)
(
 (0 0 1) (1 10 1) (0 0 1) 
)
(
 (0 0 1) (1 10 1) (0 0 1) 
)
(
 (0 0 1) (1 10 1) (0 0 1) 
)
(
 (0 0 1) (1 10 1) (0 0 1) 
)
(
 (0 0 1) (1 10 1) (0 0 1) 
)
(
 (0 0 1) (1 10 1) (0 0 1) 
)
)
// block id 10 
hex (55 51 52 59 11 13 14 16)  (10 10 10) edgeGrading (
(
 (0 0 1) (1 10 1) (0 0 1) 
)
(
 (0 0 1) (1 10 1) (0 0 1) 
)
(
 (0 0 1) (1 10 1) (0 0 1) 
)
(
 (0 0 1) (1 10 1) (0 0 1) 
)
(
 (0 0 1) (1 10 1) (0 0 1) 
)
(
 (0 0 1) (1 10 1) (0 0 1) 
)
(
 (0 0 1) (1 10 1) (0 0 1) 
)
(
 (0 0 1) (1 10 1) (0 0 1) 
)
(
 (0 0 1) (1 10 1) (0 0 1) 
)
(
 (0 0 1) (1 10 1) (0 0 1) 
)
(
 (0 0 1) (1 10 1) (0 0 1) 
)
(
 (0 0 1) (1 10 1) (0 0 1) 
)
)
// block id 11 
hex (11 13 39 38 55 51 56 54)  (10 10 10) edgeGrading (
(
 (0 0 1) (1 10 1) (0 0 1) 
)
(
 (0 0 1) (1 10 1) (0 0 1) 
)
(
 (0 0 1) (1 10 1) (0 0 1) 
)
(
 (0 0 1) (1 10 1) (0 0 1) 
)
(
 (0 0 1) (1 10 1) (0 0 1) 
)
(
 (0 0 1) (1 10 1) (0 0 1) 
)
(
 (0 0 1) (1 10 1) (0 0 1) 
)
(
 (0 0 1) (1 10 1) (0 0 1) 
)
(
 (0 0 1) (1 10 1) (0 0 1) 
)
(
 (0 0 1) (1 10 1) (0 0 1) 
)
(
 (0 0 1) (1 10 1) (0 0 1) 
)
(
 (0 0 1) (1 10 1) (0 0 1) 
)
)
// block id 12 
hex (15 17 36 35 60 61 79 78)  (10 10 10) edgeGrading (
(
 (0 0 1) (1 10 1) (0 0 1) 
)
(
 (0 0 1) (1 10 1) (0 0 1) 
)
(
 (0 0 1) (1 10 1) (0 0 1) 
)
(
 (0 0 1) (1 10 1) (0 0 1) 
)
(
 (0 0 1) (1 10 1) (0 0 1) 
)
(
 (0 0 1) (1 10 1) (0 0 1) 
)
(
 (0 0 1) (1 10 1) (0 0 1) 
)
(
 (0 0 1) (1 10 1) (0 0 1) 
)
(
 (0 0 1) (1 10 1) (0 0 1) 
)
(
 (0 0 1) (1 10 1) (0 0 1) 
)
(
 (0 0 1) (1 10 1) (0 0 1) 
)
(
 (0 0 1) (1 10 1) (0 0 1) 
)
)
// block id 13 
hex (17 19 34 36 61 62 77 79)  (10 10 10) edgeGrading (
(
 (0 0 1) (1 10 1) (0 0 1) 
)
(
 (0 0 1) (1 10 1) (0 0 1) 
)
(
 (0 0 1) (1 10 1) (0 0 1) 
)
(
 (0 0 1) (1 10 1) (0 0 1) 
)
(
 (0 0 1) (1 10 1) (0 0 1) 
)
(
 (0 0 1) (1 10 1) (0 0 1) 
)
(
 (0 0 1) (1 10 1) (0 0 1) 
)
(
 (0 0 1) (1 10 1) (0 0 1) 
)
(
 (0 0 1) (1 10 1) (0 0 1) 
)
(
 (0 0 1) (1 10 1) (0 0 1) 
)
(
 (0 0 1) (1 10 1) (0 0 1) 
)
(
 (0 0 1) (1 10 1) (0 0 1) 
)
)
// block id 14 
hex (65 68 67 81 20 25 22 80)  (10 10 10) edgeGrading (
(
 (0 0 1) (1 10 1) (0 0 1) 
)
(
 (0 0 1) (1 10 1) (0 0 1) 
)
(
 (0 0 1) (1 10 1) (0 0 1) 
)
(
 (0 0 1) (1 10 1) (0 0 1) 
)
(
 (0 0 1) (1 10 1) (0 0 1) 
)
(
 (0 0 1) (1 10 1) (0 0 1) 
)
(
 (0 0 1) (1 10 1) (0 0 1) 
)
(
 (0 0 1) (1 10 1) (0 0 1) 
)
(
 (0 0 1) (1 10 1) (0 0 1) 
)
(
 (0 0 1) (1 10 1) (0 0 1) 
)
(
 (0 0 1) (1 10 1) (0 0 1) 
)
(
 (0 0 1) (1 10 1) (0 0 1) 
)
)
// block id 15 
hex (65 66 63 68 20 24 27 25)  (10 10 10) edgeGrading (
(
 (0 0 1) (1 10 1) (0 0 1) 
)
(
 (0 0 1) (1 10 1) (0 0 1) 
)
(
 (0 0 1) (1 10 1) (0 0 1) 
)
(
 (0 0 1) (1 10 1) (0 0 1) 
)
(
 (0 0 1) (1 10 1) (0 0 1) 
)
(
 (0 0 1) (1 10 1) (0 0 1) 
)
(
 (0 0 1) (1 10 1) (0 0 1) 
)
(
 (0 0 1) (1 10 1) (0 0 1) 
)
(
 (0 0 1) (1 10 1) (0 0 1) 
)
(
 (0 0 1) (1 10 1) (0 0 1) 
)
(
 (0 0 1) (1 10 1) (0 0 1) 
)
(
 (0 0 1) (1 10 1) (0 0 1) 
)
)
// block id 16 
hex (69 70 63 71 21 26 27 23)  (10 10 10) edgeGrading (
(
 (0 0 1) (1 10 1) (0 0 1) 
)
(
 (0 0 1) (1 10 1) (0 0 1) 
)
(
 (0 0 1) (1 10 1) (0 0 1) 
)
(
 (0 0 1) (1 10 1) (0 0 1) 
)
(
 (0 0 1) (1 10 1) (0 0 1) 
)
(
 (0 0 1) (1 10 1) (0 0 1) 
)
(
 (0 0 1) (1 10 1) (0 0 1) 
)
(
 (0 0 1) (1 10 1) (0 0 1) 
)
(
 (0 0 1) (1 10 1) (0 0 1) 
)
(
 (0 0 1) (1 10 1) (0 0 1) 
)
(
 (0 0 1) (1 10 1) (0 0 1) 
)
(
 (0 0 1) (1 10 1) (0 0 1) 
)
)
// block id 17 
hex (67 68 63 70 22 25 27 26)  (10 10 10) edgeGrading (
(
 (0 0 1) (1 10 1) (0 0 1) 
)
(
 (0 0 1) (1 10 1) (0 0 1) 
)
(
 (0 0 1) (1 10 1) (0 0 1) 
)
(
 (0 0 1) (1 10 1) (0 0 1) 
)
(
 (0 0 1) (1 10 1) (0 0 1) 
)
(
 (0 0 1) (1 10 1) (0 0 1) 
)
(
 (0 0 1) (1 10 1) (0 0 1) 
)
(
 (0 0 1) (1 10 1) (0 0 1) 
)
(
 (0 0 1) (1 10 1) (0 0 1) 
)
(
 (0 0 1) (1 10 1) (0 0 1) 
)
(
 (0 0 1) (1 10 1) (0 0 1) 
)
(
 (0 0 1) (1 10 1) (0 0 1) 
)
)
// block id 18 
hex (23 28 30 27 71 73 64 63)  (10 10 10) edgeGrading (
(
 (0 0 1) (1 10 1) (0 0 1) 
)
(
 (0 0 1) (1 10 1) (0 0 1) 
)
(
 (0 0 1) (1 10 1) (0 0 1) 
)
(
 (0 0 1) (1 10 1) (0 0 1) 
)
(
 (0 0 1) (1 10 1) (0 0 1) 
)
(
 (0 0 1) (1 10 1) (0 0 1) 
)
(
 (0 0 1) (1 10 1) (0 0 1) 
)
(
 (0 0 1) (1 10 1) (0 0 1) 
)
(
 (0 0 1) (1 10 1) (0 0 1) 
)
(
 (0 0 1) (1 10 1) (0 0 1) 
)
(
 (0 0 1) (1 10 1) (0 0 1) 
)
(
 (0 0 1) (1 10 1) (0 0 1) 
)
)
// block id 19 
hex (66 72 64 63 24 29 30 27)  (10 10 10) edgeGrading (
(
 (0 0 1) (1 10 1) (0 0 1) 
)
(
 (0 0 1) (1 10 1) (0 0 1) 
)
(
 (0 0 1) (1 10 1) (0 0 1) 
)
(
 (0 0 1) (1 10 1) (0 0 1) 
)
(
 (0 0 1) (1 10 1) (0 0 1) 
)
(
 (0 0 1) (1 10 1) (0 0 1) 
)
(
 (0 0 1) (1 10 1) (0 0 1) 
)
(
 (0 0 1) (1 10 1) (0 0 1) 
)
(
 (0 0 1) (1 10 1) (0 0 1) 
)
(
 (0 0 1) (1 10 1) (0 0 1) 
)
(
 (0 0 1) (1 10 1) (0 0 1) 
)
(
 (0 0 1) (1 10 1) (0 0 1) 
)
)
// block id 20 
hex (73 64 75 76 28 30 31 33)  (10 10 10) edgeGrading (
(
 (0 0 1) (1 10 1) (0 0 1) 
)
(
 (0 0 1) (1 10 1) (0 0 1) 
)
(
 (0 0 1) (1 10 1) (0 0 1) 
)
(
 (0 0 1) (1 10 1) (0 0 1) 
)
(
 (0 0 1) (1 10 1) (0 0 1) 
)
(
 (0 0 1) (1 10 1) (0 0 1) 
)
(
 (0 0 1) (1 10 1) (0 0 1) 
)
(
 (0 0 1) (1 10 1) (0 0 1) 
)
(
 (0 0 1) (1 10 1) (0 0 1) 
)
(
 (0 0 1) (1 10 1) (0 0 1) 
)
(
 (0 0 1) (1 10 1) (0 0 1) 
)
(
 (0 0 1) (1 10 1) (0 0 1) 
)
)
// block id 21 
hex (29 30 31 32 72 64 75 74)  (10 10 10) edgeGrading (
(
 (0 0 1) (1 10 1) (0 0 1) 
)
(
 (0 0 1) (1 10 1) (0 0 1) 
)
(
 (0 0 1) (1 10 1) (0 0 1) 
)
(
 (0 0 1) (1 10 1) (0 0 1) 
)
(
 (0 0 1) (1 10 1) (0 0 1) 
)
(
 (0 0 1) (1 10 1) (0 0 1) 
)
(
 (0 0 1) (1 10 1) (0 0 1) 
)
(
 (0 0 1) (1 10 1) (0 0 1) 
)
(
 (0 0 1) (1 10 1) (0 0 1) 
)
(
 (0 0 1) (1 10 1) (0 0 1) 
)
(
 (0 0 1) (1 10 1) (0 0 1) 
)
(
 (0 0 1) (1 10 1) (0 0 1) 
)
)
// block id 22 
hex (75 74 77 79 31 32 34 36)  (10 10 10) edgeGrading (
(
 (0 0 1) (1 10 1) (0 0 1) 
)
(
 (0 0 1) (1 10 1) (0 0 1) 
)
(
 (0 0 1) (1 10 1) (0 0 1) 
)
(
 (0 0 1) (1 10 1) (0 0 1) 
)
(
 (0 0 1) (1 10 1) (0 0 1) 
)
(
 (0 0 1) (1 10 1) (0 0 1) 
)
(
 (0 0 1) (1 10 1) (0 0 1) 
)
(
 (0 0 1) (1 10 1) (0 0 1) 
)
(
 (0 0 1) (1 10 1) (0 0 1) 
)
(
 (0 0 1) (1 10 1) (0 0 1) 
)
(
 (0 0 1) (1 10 1) (0 0 1) 
)
(
 (0 0 1) (1 10 1) (0 0 1) 
)
)
// block id 23 
hex (31 33 35 36 75 76 78 79)  (10 10 10) edgeGrading (
(
 (0 0 1) (1 10 1) (0 0 1) 
)
(
 (0 0 1) (1 10 1) (0 0 1) 
)
(
 (0 0 1) (1 10 1) (0 0 1) 
)
(
 (0 0 1) (1 10 1) (0 0 1) 
)
(
 (0 0 1) (1 10 1) (0 0 1) 
)
(
 (0 0 1) (1 10 1) (0 0 1) 
)
(
 (0 0 1) (1 10 1) (0 0 1) 
)
(
 (0 0 1) (1 10 1) (0 0 1) 
)
(
 (0 0 1) (1 10 1) (0 0 1) 
)
(
 (0 0 1) (1 10 1) (0 0 1) 
)
(
 (0 0 1) (1 10 1) (0 0 1) 
)
(
 (0 0 1) (1 10 1) (0 0 1) 
)
)
// block id 24 
hex (63 64 72 66 40 41 49 42)  (10 10 10) edgeGrading (
(
 (0 0 1) (1 10 1) (0 0 1) 
)
(
 (0 0 1) (1 10 1) (0 0 1) 
)
(
 (0 0 1) (1 10 1) (0 0 1) 
)
(
 (0 0 1) (1 10 1) (0 0 1) 
)
(
 (0 0 1) (1 10 1) (0 0 1) 
)
(
 (0 0 1) (1 10 1) (0 0 1) 
)
(
 (0 0 1) (1 10 1) (0 0 1) 
)
(
 (0 0 1) (1 10 1) (0 0 1) 
)
(
 (0 0 1) (1 10 1) (0 0 1) 
)
(
 (0 0 1) (1 10 1) (0 0 1) 
)
(
 (0 0 1) (1 10 1) (0 0 1) 
)
(
 (0 0 1) (1 10 1) (0 0 1) 
)
)
// block id 25 
hex (40 41 50 48 63 64 73 71)  (10 10 10) edgeGrading (
(
 (0 0 1) (1 10 1) (0 0 1) 
)
(
 (0 0 1) (1 10 1) (0 0 1) 
)
(
 (0 0 1) (1 10 1) (0 0 1) 
)
(
 (0 0 1) (1 10 1) (0 0 1) 
)
(
 (0 0 1) (1 10 1) (0 0 1) 
)
(
 (0 0 1) (1 10 1) (0 0 1) 
)
(
 (0 0 1) (1 10 1) (0 0 1) 
)
(
 (0 0 1) (1 10 1) (0 0 1) 
)
(
 (0 0 1) (1 10 1) (0 0 1) 
)
(
 (0 0 1) (1 10 1) (0 0 1) 
)
(
 (0 0 1) (1 10 1) (0 0 1) 
)
(
 (0 0 1) (1 10 1) (0 0 1) 
)
)
// block id 26 
hex (40 44 43 42 63 68 65 66)  (10 10 10) edgeGrading (
(
 (0 0 1) (1 10 1) (0 0 1) 
)
(
 (0 0 1) (1 10 1) (0 0 1) 
)
(
 (0 0 1) (1 10 1) (0 0 1) 
)
(
 (0 0 1) (1 10 1) (0 0 1) 
)
(
 (0 0 1) (1 10 1) (0 0 1) 
)
(
 (0 0 1) (1 10 1) (0 0 1) 
)
(
 (0 0 1) (1 10 1) (0 0 1) 
)
(
 (0 0 1) (1 10 1) (0 0 1) 
)
(
 (0 0 1) (1 10 1) (0 0 1) 
)
(
 (0 0 1) (1 10 1) (0 0 1) 
)
(
 (0 0 1) (1 10 1) (0 0 1) 
)
(
 (0 0 1) (1 10 1) (0 0 1) 
)
)
// block id 27 
hex (40 46 45 44 63 70 67 68)  (10 10 10) edgeGrading (
(
 (0 0 1) (1 10 1) (0 0 1) 
)
(
 (0 0 1) (1 10 1) (0 0 1) 
)
(
 (0 0 1) (1 10 1) (0 0 1) 
)
(
 (0 0 1) (1 10 1) (0 0 1) 
)
(
 (0 0 1) (1 10 1) (0 0 1) 
)
(
 (0 0 1) (1 10 1) (0 0 1) 
)
(
 (0 0 1) (1 10 1) (0 0 1) 
)
(
 (0 0 1) (1 10 1) (0 0 1) 
)
(
 (0 0 1) (1 10 1) (0 0 1) 
)
(
 (0 0 1) (1 10 1) (0 0 1) 
)
(
 (0 0 1) (1 10 1) (0 0 1) 
)
(
 (0 0 1) (1 10 1) (0 0 1) 
)
)
// block id 28 
hex (63 70 69 71 40 46 47 48)  (10 10 10) edgeGrading (
(
 (0 0 1) (1 10 1) (0 0 1) 
)
(
 (0 0 1) (1 10 1) (0 0 1) 
)
(
 (0 0 1) (1 10 1) (0 0 1) 
)
(
 (0 0 1) (1 10 1) (0 0 1) 
)
(
 (0 0 1) (1 10 1) (0 0 1) 
)
(
 (0 0 1) (1 10 1) (0 0 1) 
)
(
 (0 0 1) (1 10 1) (0 0 1) 
)
(
 (0 0 1) (1 10 1) (0 0 1) 
)
(
 (0 0 1) (1 10 1) (0 0 1) 
)
(
 (0 0 1) (1 10 1) (0 0 1) 
)
(
 (0 0 1) (1 10 1) (0 0 1) 
)
(
 (0 0 1) (1 10 1) (0 0 1) 
)
)
// block id 29 
hex (41 49 53 54 64 72 74 75)  (10 10 10) edgeGrading (
(
 (0 0 1) (1 10 1) (0 0 1) 
)
(
 (0 0 1) (1 10 1) (0 0 1) 
)
(
 (0 0 1) (1 10 1) (0 0 1) 
)
(
 (0 0 1) (1 10 1) (0 0 1) 
)
(
 (0 0 1) (1 10 1) (0 0 1) 
)
(
 (0 0 1) (1 10 1) (0 0 1) 
)
(
 (0 0 1) (1 10 1) (0 0 1) 
)
(
 (0 0 1) (1 10 1) (0 0 1) 
)
(
 (0 0 1) (1 10 1) (0 0 1) 
)
(
 (0 0 1) (1 10 1) (0 0 1) 
)
(
 (0 0 1) (1 10 1) (0 0 1) 
)
(
 (0 0 1) (1 10 1) (0 0 1) 
)
)
// block id 30 
hex (64 73 76 75 41 50 56 54)  (10 10 10) edgeGrading (
(
 (0 0 1) (1 10 1) (0 0 1) 
)
(
 (0 0 1) (1 10 1) (0 0 1) 
)
(
 (0 0 1) (1 10 1) (0 0 1) 
)
(
 (0 0 1) (1 10 1) (0 0 1) 
)
(
 (0 0 1) (1 10 1) (0 0 1) 
)
(
 (0 0 1) (1 10 1) (0 0 1) 
)
(
 (0 0 1) (1 10 1) (0 0 1) 
)
(
 (0 0 1) (1 10 1) (0 0 1) 
)
(
 (0 0 1) (1 10 1) (0 0 1) 
)
(
 (0 0 1) (1 10 1) (0 0 1) 
)
(
 (0 0 1) (1 10 1) (0 0 1) 
)
(
 (0 0 1) (1 10 1) (0 0 1) 
)
)
// block id 31 
hex (43 44 45 83 65 68 67 81)  (10 10 10) edgeGrading (
(
 (0 0 1) (1 10 1) (0 0 1) 
)
(
 (0 0 1) (1 10 1) (0 0 1) 
)
(
 (0 0 1) (1 10 1) (0 0 1) 
)
(
 (0 0 1) (1 10 1) (0 0 1) 
)
(
 (0 0 1) (1 10 1) (0 0 1) 
)
(
 (0 0 1) (1 10 1) (0 0 1) 
)
(
 (0 0 1) (1 10 1) (0 0 1) 
)
(
 (0 0 1) (1 10 1) (0 0 1) 
)
(
 (0 0 1) (1 10 1) (0 0 1) 
)
(
 (0 0 1) (1 10 1) (0 0 1) 
)
(
 (0 0 1) (1 10 1) (0 0 1) 
)
(
 (0 0 1) (1 10 1) (0 0 1) 
)
)
// block id 32 
hex (78 60 61 79 51 52 59 55)  (10 10 10) edgeGrading (
(
 (0 0 1) (1 10 1) (0 0 1) 
)
(
 (0 0 1) (1 10 1) (0 0 1) 
)
(
 (0 0 1) (1 10 1) (0 0 1) 
)
(
 (0 0 1) (1 10 1) (0 0 1) 
)
(
 (0 0 1) (1 10 1) (0 0 1) 
)
(
 (0 0 1) (1 10 1) (0 0 1) 
)
(
 (0 0 1) (1 10 1) (0 0 1) 
)
(
 (0 0 1) (1 10 1) (0 0 1) 
)
(
 (0 0 1) (1 10 1) (0 0 1) 
)
(
 (0 0 1) (1 10 1) (0 0 1) 
)
(
 (0 0 1) (1 10 1) (0 0 1) 
)
(
 (0 0 1) (1 10 1) (0 0 1) 
)
)
// block id 33 
hex (78 79 75 76 51 55 54 56)  (10 10 10) edgeGrading (
(
 (0 0 1) (1 10 1) (0 0 1) 
)
(
 (0 0 1) (1 10 1) (0 0 1) 
)
(
 (0 0 1) (1 10 1) (0 0 1) 
)
(
 (0 0 1) (1 10 1) (0 0 1) 
)
(
 (0 0 1) (1 10 1) (0 0 1) 
)
(
 (0 0 1) (1 10 1) (0 0 1) 
)
(
 (0 0 1) (1 10 1) (0 0 1) 
)
(
 (0 0 1) (1 10 1) (0 0 1) 
)
(
 (0 0 1) (1 10 1) (0 0 1) 
)
(
 (0 0 1) (1 10 1) (0 0 1) 
)
(
 (0 0 1) (1 10 1) (0 0 1) 
)
(
 (0 0 1) (1 10 1) (0 0 1) 
)
)
// block id 34 
hex (53 57 55 54 74 77 79 75)  (10 10 10) edgeGrading (
(
 (0 0 1) (1 10 1) (0 0 1) 
)
(
 (0 0 1) (1 10 1) (0 0 1) 
)
(
 (0 0 1) (1 10 1) (0 0 1) 
)
(
 (0 0 1) (1 10 1) (0 0 1) 
)
(
 (0 0 1) (1 10 1) (0 0 1) 
)
(
 (0 0 1) (1 10 1) (0 0 1) 
)
(
 (0 0 1) (1 10 1) (0 0 1) 
)
(
 (0 0 1) (1 10 1) (0 0 1) 
)
(
 (0 0 1) (1 10 1) (0 0 1) 
)
(
 (0 0 1) (1 10 1) (0 0 1) 
)
(
 (0 0 1) (1 10 1) (0 0 1) 
)
(
 (0 0 1) (1 10 1) (0 0 1) 
)
)
// block id 35 
hex (55 57 58 59 79 77 62 61)  (10 10 10) edgeGrading (
(
 (0 0 1) (1 10 1) (0 0 1) 
)
(
 (0 0 1) (1 10 1) (0 0 1) 
)
(
 (0 0 1) (1 10 1) (0 0 1) 
)
(
 (0 0 1) (1 10 1) (0 0 1) 
)
(
 (0 0 1) (1 10 1) (0 0 1) 
)
(
 (0 0 1) (1 10 1) (0 0 1) 
)
(
 (0 0 1) (1 10 1) (0 0 1) 
)
(
 (0 0 1) (1 10 1) (0 0 1) 
)
(
 (0 0 1) (1 10 1) (0 0 1) 
)
(
 (0 0 1) (1 10 1) (0 0 1) 
)
(
 (0 0 1) (1 10 1) (0 0 1) 
)
(
 (0 0 1) (1 10 1) (0 0 1) 
)
)
);

patches
(
     wall default
    (
        (52 59 61 60)
        (59 58 62 61)
        (24 29 72 66)
        (32 34 77 74)
        (3 8 50 48)
        (26 22 67 70)
        (15 35 78 60)
        (34 19 62 77)
        (28 23 71 73)
        (35 33 76 78)
        (4 0 43 42)
        (13 14 52 51)
        (37 9 49 53)
        (6 1 47 46)
        (1 3 48 47)
        (20 24 66 65)
        (12 37 53 57)
        (29 32 74 72)
        (9 4 42 49)
        (39 13 51 56)
        (21 26 70 69)
        (8 39 56 50)
        (2 6 46 45)
        (23 21 69 71)
        (18 12 57 58)
        (33 28 73 76)
        (67 45 46 70)
        (70 46 47 69)
        (69 47 48 71)
        (71 48 50 73)
        (56 76 73 50)
        (76 56 51 78)
        (78 51 52 60)
        (62 58 57 77)
        (77 57 53 74)
        (74 53 49 72)
        (72 49 42 66)
        (66 42 43 65)
        (59 52 14 16)
        (15 60 61 17)
        (17 61 62 19)
        (58 59 16 18)
        (22 80 81 67)
        (65 81 80 20)
        (82 2 45 83)
        (0 82 83 43)
        (81 83 45 67)
        (43 83 81 65)
    )
     wall wall_top
    (
        (9 10 7 4)
        (8 3 7 10)
        (4 7 5 0)
        (3 1 6 7)
        (7 6 2 5)
        (16 11 12 18)
        (14 13 11 16)
        (37 12 11 38)
        (38 11 13 39)
        (10 38 39 8)
        (9 37 38 10)
        (5 2 82 0)
    )
     wall wall_bottom
    (
        (29 24 27 30)
        (28 30 27 23)
        (24 20 25 27)
        (23 27 26 21)
        (27 25 22 26)
        (34 36 17 19)
        (36 35 15 17)
        (29 30 31 32)
        (30 28 33 31)
        (31 33 35 36)
        (32 31 36 34)
        (20 80 22 25)
    )
);