
/*--------------------------------*- C++ -*----------------------------------*/

// File was generated by SwiftBlock, a Blender 3D addon.

FoamFile
{
    version     2.0;
    format      ascii;
    class       dictionary;
    object      blockMeshDict;
}
// * * * * * * * * * * * * * * * * * * * * * * * * * * * * * * * * * * * * * //

deltaT          1;

writeInterval   1;



// ************************************************************************* //


geometry
{
}
vertices
(
    (0.9999998807907104 0.5 -0.5)
    (0.9999998807907104 0.5 1.0)
    (1.0 -1.0 -0.5)
    (1.0 -1.0 1.0)
    (-0.5 0.5 0.25)
    (-0.5 0.5 1.75)
    (-0.5 -1.0000001192092896 0.25)
    (-0.5 -1.0000001192092896 1.75)
    (-1.0 1.0 2.0)
    (0.9999998807907104 1.0 1.0)
    (0.9999998807907104 1.0 -1.0)
    (1.0 -1.0 -1.0)
    (-1.0 -1.0000001192092896 0.0)
    (-1.0 1.0 0.0)
    (-1.0 -1.0000001192092896 2.0)
);
edges
(
);
faces
(
);
blocks
(
// block id 0 
hex (0 2 3 1 4 6 7 5)  (10 10 10) edgeGrading (
(
 (0 0 1) (1 10 1) (0 0 1) 
)
(
 (0 0 1) (1 10 1) (0 0 1) 
)
(
 (0 0 1) (1 10 1) (0 0 1) 
)
(
 (0 0 1) (1 10 1) (0 0 1) 
)
(
 (0 0 1) (1 10 1) (0 0 1) 
)
(
 (0 0 1) (1 10 1) (0 0 1) 
)
(
 (0 0 1) (1 10 1) (0 0 1) 
)
(
 (0 0 1) (1 10 1) (0 0 1) 
)
(
 (0 0 1) (1 10 1) (0 0 1) 
)
(
 (0 0 1) (1 10 1) (0 0 1) 
)
(
 (0 0 1) (1 10 1) (0 0 1) 
)
(
 (0 0 1) (1 10 1) (0 0 1) 
)
)
// block id 1 
hex (10 9 8 13 0 1 5 4)  (10 10 10) edgeGrading (
(
 (0 0 1) (1 10 1) (0 0 1) 
)
(
 (0 0 1) (1 10 1) (0 0 1) 
)
(
 (0 0 1) (1 10 1) (0 0 1) 
)
(
 (0 0 1) (1 10 1) (0 0 1) 
)
(
 (0 0 1) (1 10 1) (0 0 1) 
)
(
 (0 0 1) (1 10 1) (0 0 1) 
)
(
 (0 0 1) (1 10 1) (0 0 1) 
)
(
 (0 0 1) (1 10 1) (0 0 1) 
)
(
 (0 0 1) (1 10 1) (0 0 1) 
)
(
 (0 0 1) (1 10 1) (0 0 1) 
)
(
 (0 0 1) (1 10 1) (0 0 1) 
)
(
 (0 0 1) (1 10 1) (0 0 1) 
)
)
// block id 2 
hex (0 2 6 4 10 11 12 13)  (10 10 10) edgeGrading (
(
 (0 0 1) (1 10 1) (0 0 1) 
)
(
 (0 0 1) (1 10 1) (0 0 1) 
)
(
 (0 0 1) (1 10 1) (0 0 1) 
)
(
 (0 0 1) (1 10 1) (0 0 1) 
)
(
 (0 0 1) (1 10 1) (0 0 1) 
)
(
 (0 0 1) (1 10 1) (0 0 1) 
)
(
 (0 0 1) (1 10 1) (0 0 1) 
)
(
 (0 0 1) (1 10 1) (0 0 1) 
)
(
 (0 0 1) (1 10 1) (0 0 1) 
)
(
 (0 0 1) (1 10 1) (0 0 1) 
)
(
 (0 0 1) (1 10 1) (0 0 1) 
)
(
 (0 0 1) (1 10 1) (0 0 1) 
)
)
// block id 3 
hex (4 6 7 5 13 12 14 8)  (10 10 10) edgeGrading (
(
 (0 0 1) (1 10 1) (0 0 1) 
)
(
 (0 0 1) (1 10 1) (0 0 1) 
)
(
 (0 0 1) (1 10 1) (0 0 1) 
)
(
 (0 0 1) (1 10 1) (0 0 1) 
)
(
 (0 0 1) (1 10 1) (0 0 1) 
)
(
 (0 0 1) (1 10 1) (0 0 1) 
)
(
 (0 0 1) (1 10 1) (0 0 1) 
)
(
 (0 0 1) (1 10 1) (0 0 1) 
)
(
 (0 0 1) (1 10 1) (0 0 1) 
)
(
 (0 0 1) (1 10 1) (0 0 1) 
)
(
 (0 0 1) (1 10 1) (0 0 1) 
)
(
 (0 0 1) (1 10 1) (0 0 1) 
)
)
);

patches
(
     wall default
    (
        (12 14 8 13)
        (13 8 9 10)
        (11 12 13 10)
    )
     wall top
    (
        (7 3 1 5)
        (5 8 14 7)
        (1 9 8 5)
    )
     wall front
    (
        (2 3 7 6)
        (6 12 14 7)
        (6 12 11 2)
    )
     wall right
    (
        (0 1 3 2)
        (0 10 11 2)
        (0 10 9 1)
    )
);