
/*--------------------------------*- C++ -*----------------------------------*/

// File was generated by SwiftBlock, a Blender 3D addon.

FoamFile
{
    version     2.0;
    format      ascii;
    class       dictionary;
    object      blockMeshDict;
}
// * * * * * * * * * * * * * * * * * * * * * * * * * * * * * * * * * * * * * //

deltaT          1;

writeInterval   1;



// ************************************************************************* //


geometry
{
}
vertices
(
    (-1.0 -0.5 0.0)
    (-0.9238795042037964 -0.4999999701976776 -0.3826834559440613)
    (-0.8314695954322815 -0.4999999701976776 -0.5555702447891235)
    (0.0 -0.4999999701976776 -1.0)
    (-0.699999988079071 -0.5 0.0)
    (-0.6865496635437012 -0.5 -0.1365632265806198)
    (-0.6467156410217285 -0.5 -0.2678784132003784)
    (-0.5820286870002747 -0.4999999701976776 -0.38889917731285095)
    (-0.4949747323989868 -0.4999999701976776 -0.4949747323989868)
    (-0.38889917731285095 -0.4999999701976776 -0.5820286870002747)
    (-0.2678784132003784 -0.4999999701976776 -0.6467156410217285)
    (-0.1365632265806198 -0.4999999701976776 -0.6865496635437012)
    (0.0 -0.4999999701976776 -0.699999988079071)
    (-1.3969838619232178e-09 -0.4999999701976776 -0.8400000333786011)
    (-0.16387587785720825 -0.4999999701976776 -0.8238596320152283)
    (-0.36259379982948303 -0.4999999701976776 -0.8012332916259766)
    (-0.4792378544807434 -0.4999999701976776 -0.6818727254867554)
    (-0.5939697027206421 -0.4999999701976776 -0.5939697027206421)
    (-0.6984344720840454 -0.4999999701976776 -0.46667903661727905)
    (-0.7760587930679321 -0.5 -0.32145410776138306)
    (-0.8238596320152283 -0.5 -0.16387587785720825)
    (-0.8400000333786011 -0.5 3.725291186640334e-10)
    (-0.1818181872367859 -0.4999999701976776 -1.0)
    (-0.3636363744735718 -0.4999999701976776 -1.0)
    (-0.706824004650116 -0.4999999701976776 -1.0)
    (-0.706824004650116 -0.4999999701976776 -0.706824004650116)
    (-0.9803929924964905 -0.5 -0.19501230120658875)
    (-0.706824004650116 -0.4999999701976776 -0.8534120321273804)
    (-0.8718240261077881 -0.4999999701976776 -1.0)
    (-0.8718240261077881 -0.4999999701976776 -0.706824004650116)
    (-0.8718240261077881 -0.4999999701976776 -0.8534120321273804)
    (-1.0368239879608154 -0.4999999701976776 -1.0)
    (-1.0368239879608154 -0.4999999701976776 -0.706824004650116)
    (-1.0368239879608154 -0.4999999701976776 -0.8534120321273804)
    (-1.2018239498138428 -0.4999999701976776 -1.0)
    (-1.2018239498138428 -0.4999999701976776 -0.706824004650116)
    (-1.2018239498138428 -0.4999999701976776 -0.8534120321273804)
    (-1.3668239116668701 -0.4999999701976776 -1.0)
    (-1.3668239116668701 -0.4999999701976776 -0.706824004650116)
    (-1.3668239116668701 -0.4999999701976776 -0.8534120321273804)
    (-0.5748300552368164 -0.4999999701976776 -0.747566819190979)
    (-0.5416319370269775 -0.4999999701976776 -0.8512477874755859)
    (-0.5256245136260986 -0.4999999701976776 -1.0)
    (-0.6467156410217285 0.7000000476837158 -0.2678784132003784)
    (-0.4949747323989868 0.7000000476837158 -0.4949747323989868)
    (-0.5820286870002747 0.7000000476837158 -0.38889917731285095)
    (-0.38889917731285095 0.7000000476837158 -0.5820286870002747)
    (-0.4792378544807434 0.7000000476837158 -0.6818727254867554)
    (-0.16387587785720825 0.7000000476837158 -0.8238596320152283)
    (-0.36259379982948303 0.7000000476837158 -0.8012332916259766)
    (-0.2678784132003784 0.7000000476837158 -0.6467156410217285)
    (0.0 0.7000000476837158 -0.699999988079071)
    (-1.3969838619232178e-09 0.7000000476837158 -0.8400000333786011)
    (-0.1365632265806198 0.7000000476837158 -0.6865496635437012)
    (-0.699999988079071 0.7000000476837158 0.0)
    (-0.6865496635437012 0.7000000476837158 -0.1365632265806198)
    (-0.8314695954322815 0.7000000476837158 -0.5555702447891235)
    (-0.6984344720840454 0.7000000476837158 -0.46667903661727905)
    (-0.7760587930679321 0.7000000476837158 -0.32145410776138306)
    (-0.9238795042037964 0.7000000476837158 -0.3826834559440613)
    (-0.8238596320152283 0.7000000476837158 -0.16387587785720825)
    (-0.9803929924964905 0.7000000476837158 -0.19501230120658875)
    (-1.0 0.7000000476837158 0.0)
    (-0.8400000333786011 0.7000000476837158 3.725291186640334e-10)
    (0.0 0.7000000476837158 -1.0)
    (-0.1818181872367859 0.7000000476837158 -1.0)
    (-0.706824004650116 0.7000000476837158 -1.0)
    (-0.706824004650116 0.7000000476837158 -0.706824004650116)
    (-0.8718240261077881 0.7000000476837158 -1.0)
    (-0.8718240261077881 0.7000000476837158 -0.8534120321273804)
    (-1.0368239879608154 0.7000000476837158 -0.706824004650116)
    (-0.8718240261077881 0.7000000476837158 -0.706824004650116)
    (-1.0368239879608154 0.7000000476837158 -1.0)
    (-1.0368239879608154 0.7000000476837158 -0.8534120321273804)
    (-1.2018239498138428 0.7000000476837158 -0.8534120321273804)
    (-1.2018239498138428 0.7000000476837158 -0.706824004650116)
    (-1.2018239498138428 0.7000000476837158 -1.0)
    (-1.3668239116668701 0.7000000476837158 -1.0)
    (-1.3668239116668701 0.7000000476837158 -0.8534120321273804)
    (-1.3668239116668701 0.7000000476837158 -0.706824004650116)
    (-0.5748300552368164 0.7000000476837158 -0.747566819190979)
    (-0.5939697027206421 0.7000000476837158 -0.5939697027206421)
    (-0.706824004650116 0.7000000476837158 -0.8534120321273804)
    (-0.3636363744735718 0.7000000476837158 -1.0)
    (-0.5256245136260986 0.7000000476837158 -1.0)
    (-0.5416319370269775 0.7000000476837158 -0.8512477874755859)
);
edges
(
);
faces
(
);
blocks
(
// block id 0 
hex (62 61 60 63 0 26 20 21)  (10 10 10) edgeGrading (
(
 (0 0 1) (1 10 1) (0 0 1) 
)
(
 (0 0 1) (1 10 1) (0 0 1) 
)
(
 (0 0 1) (1 10 1) (0 0 1) 
)
(
 (0 0 1) (1 10 1) (0 0 1) 
)
(
 (0 0 1) (1 10 1) (0 0 1) 
)
(
 (0 0 1) (1 10 1) (0 0 1) 
)
(
 (0 0 1) (1 10 1) (0 0 1) 
)
(
 (0 0 1) (1 10 1) (0 0 1) 
)
(
 (0 0 1) (1 10 1) (0 0 1) 
)
(
 (0 0 1) (1 10 1) (0 0 1) 
)
(
 (0 0 1) (1 10 1) (0 0 1) 
)
(
 (0 0 1) (1 10 1) (0 0 1) 
)
)
// block id 1 
hex (59 56 57 58 1 2 18 19)  (10 10 10) edgeGrading (
(
 (0 0 1) (1 10 1) (0 0 1) 
)
(
 (0 0 1) (1 10 1) (0 0 1) 
)
(
 (0 0 1) (1 10 1) (0 0 1) 
)
(
 (0 0 1) (1 10 1) (0 0 1) 
)
(
 (0 0 1) (1 10 1) (0 0 1) 
)
(
 (0 0 1) (1 10 1) (0 0 1) 
)
(
 (0 0 1) (1 10 1) (0 0 1) 
)
(
 (0 0 1) (1 10 1) (0 0 1) 
)
(
 (0 0 1) (1 10 1) (0 0 1) 
)
(
 (0 0 1) (1 10 1) (0 0 1) 
)
(
 (0 0 1) (1 10 1) (0 0 1) 
)
(
 (0 0 1) (1 10 1) (0 0 1) 
)
)
// block id 2 
hex (1 26 20 19 59 61 60 58)  (10 10 10) edgeGrading (
(
 (0 0 1) (1 10 1) (0 0 1) 
)
(
 (0 0 1) (1 10 1) (0 0 1) 
)
(
 (0 0 1) (1 10 1) (0 0 1) 
)
(
 (0 0 1) (1 10 1) (0 0 1) 
)
(
 (0 0 1) (1 10 1) (0 0 1) 
)
(
 (0 0 1) (1 10 1) (0 0 1) 
)
(
 (0 0 1) (1 10 1) (0 0 1) 
)
(
 (0 0 1) (1 10 1) (0 0 1) 
)
(
 (0 0 1) (1 10 1) (0 0 1) 
)
(
 (0 0 1) (1 10 1) (0 0 1) 
)
(
 (0 0 1) (1 10 1) (0 0 1) 
)
(
 (0 0 1) (1 10 1) (0 0 1) 
)
)
// block id 3 
hex (56 67 81 57 2 25 17 18)  (10 10 10) edgeGrading (
(
 (0 0 1) (1 10 1) (0 0 1) 
)
(
 (0 0 1) (1 10 1) (0 0 1) 
)
(
 (0 0 1) (1 10 1) (0 0 1) 
)
(
 (0 0 1) (1 10 1) (0 0 1) 
)
(
 (0 0 1) (1 10 1) (0 0 1) 
)
(
 (0 0 1) (1 10 1) (0 0 1) 
)
(
 (0 0 1) (1 10 1) (0 0 1) 
)
(
 (0 0 1) (1 10 1) (0 0 1) 
)
(
 (0 0 1) (1 10 1) (0 0 1) 
)
(
 (0 0 1) (1 10 1) (0 0 1) 
)
(
 (0 0 1) (1 10 1) (0 0 1) 
)
(
 (0 0 1) (1 10 1) (0 0 1) 
)
)
// block id 4 
hex (3 22 14 13 64 65 48 52)  (10 10 10) edgeGrading (
(
 (0 0 1) (1 10 1) (0 0 1) 
)
(
 (0 0 1) (1 10 1) (0 0 1) 
)
(
 (0 0 1) (1 10 1) (0 0 1) 
)
(
 (0 0 1) (1 10 1) (0 0 1) 
)
(
 (0 0 1) (1 10 1) (0 0 1) 
)
(
 (0 0 1) (1 10 1) (0 0 1) 
)
(
 (0 0 1) (1 10 1) (0 0 1) 
)
(
 (0 0 1) (1 10 1) (0 0 1) 
)
(
 (0 0 1) (1 10 1) (0 0 1) 
)
(
 (0 0 1) (1 10 1) (0 0 1) 
)
(
 (0 0 1) (1 10 1) (0 0 1) 
)
(
 (0 0 1) (1 10 1) (0 0 1) 
)
)
// block id 5 
hex (4 5 20 21 54 55 60 63)  (10 10 10) edgeGrading (
(
 (0 0 1) (1 10 1) (0 0 1) 
)
(
 (0 0 1) (1 10 1) (0 0 1) 
)
(
 (0 0 1) (1 10 1) (0 0 1) 
)
(
 (0 0 1) (1 10 1) (0 0 1) 
)
(
 (0 0 1) (1 10 1) (0 0 1) 
)
(
 (0 0 1) (1 10 1) (0 0 1) 
)
(
 (0 0 1) (1 10 1) (0 0 1) 
)
(
 (0 0 1) (1 10 1) (0 0 1) 
)
(
 (0 0 1) (1 10 1) (0 0 1) 
)
(
 (0 0 1) (1 10 1) (0 0 1) 
)
(
 (0 0 1) (1 10 1) (0 0 1) 
)
(
 (0 0 1) (1 10 1) (0 0 1) 
)
)
// block id 6 
hex (5 6 19 20 55 43 58 60)  (10 10 10) edgeGrading (
(
 (0 0 1) (1 10 1) (0 0 1) 
)
(
 (0 0 1) (1 10 1) (0 0 1) 
)
(
 (0 0 1) (1 10 1) (0 0 1) 
)
(
 (0 0 1) (1 10 1) (0 0 1) 
)
(
 (0 0 1) (1 10 1) (0 0 1) 
)
(
 (0 0 1) (1 10 1) (0 0 1) 
)
(
 (0 0 1) (1 10 1) (0 0 1) 
)
(
 (0 0 1) (1 10 1) (0 0 1) 
)
(
 (0 0 1) (1 10 1) (0 0 1) 
)
(
 (0 0 1) (1 10 1) (0 0 1) 
)
(
 (0 0 1) (1 10 1) (0 0 1) 
)
(
 (0 0 1) (1 10 1) (0 0 1) 
)
)
// block id 7 
hex (6 7 18 19 43 45 57 58)  (10 10 10) edgeGrading (
(
 (0 0 1) (1 10 1) (0 0 1) 
)
(
 (0 0 1) (1 10 1) (0 0 1) 
)
(
 (0 0 1) (1 10 1) (0 0 1) 
)
(
 (0 0 1) (1 10 1) (0 0 1) 
)
(
 (0 0 1) (1 10 1) (0 0 1) 
)
(
 (0 0 1) (1 10 1) (0 0 1) 
)
(
 (0 0 1) (1 10 1) (0 0 1) 
)
(
 (0 0 1) (1 10 1) (0 0 1) 
)
(
 (0 0 1) (1 10 1) (0 0 1) 
)
(
 (0 0 1) (1 10 1) (0 0 1) 
)
(
 (0 0 1) (1 10 1) (0 0 1) 
)
(
 (0 0 1) (1 10 1) (0 0 1) 
)
)
// block id 8 
hex (7 8 17 18 45 44 81 57)  (10 10 10) edgeGrading (
(
 (0 0 1) (1 10 1) (0 0 1) 
)
(
 (0 0 1) (1 10 1) (0 0 1) 
)
(
 (0 0 1) (1 10 1) (0 0 1) 
)
(
 (0 0 1) (1 10 1) (0 0 1) 
)
(
 (0 0 1) (1 10 1) (0 0 1) 
)
(
 (0 0 1) (1 10 1) (0 0 1) 
)
(
 (0 0 1) (1 10 1) (0 0 1) 
)
(
 (0 0 1) (1 10 1) (0 0 1) 
)
(
 (0 0 1) (1 10 1) (0 0 1) 
)
(
 (0 0 1) (1 10 1) (0 0 1) 
)
(
 (0 0 1) (1 10 1) (0 0 1) 
)
(
 (0 0 1) (1 10 1) (0 0 1) 
)
)
// block id 9 
hex (8 9 16 17 44 46 47 81)  (10 10 10) edgeGrading (
(
 (0 0 1) (1 10 1) (0 0 1) 
)
(
 (0 0 1) (1 10 1) (0 0 1) 
)
(
 (0 0 1) (1 10 1) (0 0 1) 
)
(
 (0 0 1) (1 10 1) (0 0 1) 
)
(
 (0 0 1) (1 10 1) (0 0 1) 
)
(
 (0 0 1) (1 10 1) (0 0 1) 
)
(
 (0 0 1) (1 10 1) (0 0 1) 
)
(
 (0 0 1) (1 10 1) (0 0 1) 
)
(
 (0 0 1) (1 10 1) (0 0 1) 
)
(
 (0 0 1) (1 10 1) (0 0 1) 
)
(
 (0 0 1) (1 10 1) (0 0 1) 
)
(
 (0 0 1) (1 10 1) (0 0 1) 
)
)
// block id 10 
hex (9 10 15 16 46 50 49 47)  (10 10 10) edgeGrading (
(
 (0 0 1) (1 10 1) (0 0 1) 
)
(
 (0 0 1) (1 10 1) (0 0 1) 
)
(
 (0 0 1) (1 10 1) (0 0 1) 
)
(
 (0 0 1) (1 10 1) (0 0 1) 
)
(
 (0 0 1) (1 10 1) (0 0 1) 
)
(
 (0 0 1) (1 10 1) (0 0 1) 
)
(
 (0 0 1) (1 10 1) (0 0 1) 
)
(
 (0 0 1) (1 10 1) (0 0 1) 
)
(
 (0 0 1) (1 10 1) (0 0 1) 
)
(
 (0 0 1) (1 10 1) (0 0 1) 
)
(
 (0 0 1) (1 10 1) (0 0 1) 
)
(
 (0 0 1) (1 10 1) (0 0 1) 
)
)
// block id 11 
hex (10 11 14 15 50 53 48 49)  (10 10 10) edgeGrading (
(
 (0 0 1) (1 10 1) (0 0 1) 
)
(
 (0 0 1) (1 10 1) (0 0 1) 
)
(
 (0 0 1) (1 10 1) (0 0 1) 
)
(
 (0 0 1) (1 10 1) (0 0 1) 
)
(
 (0 0 1) (1 10 1) (0 0 1) 
)
(
 (0 0 1) (1 10 1) (0 0 1) 
)
(
 (0 0 1) (1 10 1) (0 0 1) 
)
(
 (0 0 1) (1 10 1) (0 0 1) 
)
(
 (0 0 1) (1 10 1) (0 0 1) 
)
(
 (0 0 1) (1 10 1) (0 0 1) 
)
(
 (0 0 1) (1 10 1) (0 0 1) 
)
(
 (0 0 1) (1 10 1) (0 0 1) 
)
)
// block id 12 
hex (11 12 13 14 53 51 52 48)  (10 10 10) edgeGrading (
(
 (0 0 1) (1 10 1) (0 0 1) 
)
(
 (0 0 1) (1 10 1) (0 0 1) 
)
(
 (0 0 1) (1 10 1) (0 0 1) 
)
(
 (0 0 1) (1 10 1) (0 0 1) 
)
(
 (0 0 1) (1 10 1) (0 0 1) 
)
(
 (0 0 1) (1 10 1) (0 0 1) 
)
(
 (0 0 1) (1 10 1) (0 0 1) 
)
(
 (0 0 1) (1 10 1) (0 0 1) 
)
(
 (0 0 1) (1 10 1) (0 0 1) 
)
(
 (0 0 1) (1 10 1) (0 0 1) 
)
(
 (0 0 1) (1 10 1) (0 0 1) 
)
(
 (0 0 1) (1 10 1) (0 0 1) 
)
)
// block id 13 
hex (48 49 83 65 14 15 23 22)  (10 10 10) edgeGrading (
(
 (0 0 1) (1 10 1) (0 0 1) 
)
(
 (0 0 1) (1 10 1) (0 0 1) 
)
(
 (0 0 1) (1 10 1) (0 0 1) 
)
(
 (0 0 1) (1 10 1) (0 0 1) 
)
(
 (0 0 1) (1 10 1) (0 0 1) 
)
(
 (0 0 1) (1 10 1) (0 0 1) 
)
(
 (0 0 1) (1 10 1) (0 0 1) 
)
(
 (0 0 1) (1 10 1) (0 0 1) 
)
(
 (0 0 1) (1 10 1) (0 0 1) 
)
(
 (0 0 1) (1 10 1) (0 0 1) 
)
(
 (0 0 1) (1 10 1) (0 0 1) 
)
(
 (0 0 1) (1 10 1) (0 0 1) 
)
)
// block id 14 
hex (49 47 80 85 15 16 40 41)  (10 10 10) edgeGrading (
(
 (0 0 1) (1 10 1) (0 0 1) 
)
(
 (0 0 1) (1 10 1) (0 0 1) 
)
(
 (0 0 1) (1 10 1) (0 0 1) 
)
(
 (0 0 1) (1 10 1) (0 0 1) 
)
(
 (0 0 1) (1 10 1) (0 0 1) 
)
(
 (0 0 1) (1 10 1) (0 0 1) 
)
(
 (0 0 1) (1 10 1) (0 0 1) 
)
(
 (0 0 1) (1 10 1) (0 0 1) 
)
(
 (0 0 1) (1 10 1) (0 0 1) 
)
(
 (0 0 1) (1 10 1) (0 0 1) 
)
(
 (0 0 1) (1 10 1) (0 0 1) 
)
(
 (0 0 1) (1 10 1) (0 0 1) 
)
)
// block id 15 
hex (15 23 42 41 49 83 84 85)  (10 10 10) edgeGrading (
(
 (0 0 1) (1 10 1) (0 0 1) 
)
(
 (0 0 1) (1 10 1) (0 0 1) 
)
(
 (0 0 1) (1 10 1) (0 0 1) 
)
(
 (0 0 1) (1 10 1) (0 0 1) 
)
(
 (0 0 1) (1 10 1) (0 0 1) 
)
(
 (0 0 1) (1 10 1) (0 0 1) 
)
(
 (0 0 1) (1 10 1) (0 0 1) 
)
(
 (0 0 1) (1 10 1) (0 0 1) 
)
(
 (0 0 1) (1 10 1) (0 0 1) 
)
(
 (0 0 1) (1 10 1) (0 0 1) 
)
(
 (0 0 1) (1 10 1) (0 0 1) 
)
(
 (0 0 1) (1 10 1) (0 0 1) 
)
)
// block id 16 
hex (47 81 67 80 16 17 25 40)  (10 10 10) edgeGrading (
(
 (0 0 1) (1 10 1) (0 0 1) 
)
(
 (0 0 1) (1 10 1) (0 0 1) 
)
(
 (0 0 1) (1 10 1) (0 0 1) 
)
(
 (0 0 1) (1 10 1) (0 0 1) 
)
(
 (0 0 1) (1 10 1) (0 0 1) 
)
(
 (0 0 1) (1 10 1) (0 0 1) 
)
(
 (0 0 1) (1 10 1) (0 0 1) 
)
(
 (0 0 1) (1 10 1) (0 0 1) 
)
(
 (0 0 1) (1 10 1) (0 0 1) 
)
(
 (0 0 1) (1 10 1) (0 0 1) 
)
(
 (0 0 1) (1 10 1) (0 0 1) 
)
(
 (0 0 1) (1 10 1) (0 0 1) 
)
)
// block id 17 
hex (66 82 69 68 24 27 30 28)  (10 10 10) edgeGrading (
(
 (0 0 1) (1 10 1) (0 0 1) 
)
(
 (0 0 1) (1 10 1) (0 0 1) 
)
(
 (0 0 1) (1 10 1) (0 0 1) 
)
(
 (0 0 1) (1 10 1) (0 0 1) 
)
(
 (0 0 1) (1 10 1) (0 0 1) 
)
(
 (0 0 1) (1 10 1) (0 0 1) 
)
(
 (0 0 1) (1 10 1) (0 0 1) 
)
(
 (0 0 1) (1 10 1) (0 0 1) 
)
(
 (0 0 1) (1 10 1) (0 0 1) 
)
(
 (0 0 1) (1 10 1) (0 0 1) 
)
(
 (0 0 1) (1 10 1) (0 0 1) 
)
(
 (0 0 1) (1 10 1) (0 0 1) 
)
)
// block id 18 
hex (66 84 85 82 24 42 41 27)  (10 10 10) edgeGrading (
(
 (0 0 1) (1 10 1) (0 0 1) 
)
(
 (0 0 1) (1 10 1) (0 0 1) 
)
(
 (0 0 1) (1 10 1) (0 0 1) 
)
(
 (0 0 1) (1 10 1) (0 0 1) 
)
(
 (0 0 1) (1 10 1) (0 0 1) 
)
(
 (0 0 1) (1 10 1) (0 0 1) 
)
(
 (0 0 1) (1 10 1) (0 0 1) 
)
(
 (0 0 1) (1 10 1) (0 0 1) 
)
(
 (0 0 1) (1 10 1) (0 0 1) 
)
(
 (0 0 1) (1 10 1) (0 0 1) 
)
(
 (0 0 1) (1 10 1) (0 0 1) 
)
(
 (0 0 1) (1 10 1) (0 0 1) 
)
)
// block id 19 
hex (25 27 30 29 67 82 69 71)  (10 10 10) edgeGrading (
(
 (0 0 1) (1 10 1) (0 0 1) 
)
(
 (0 0 1) (1 10 1) (0 0 1) 
)
(
 (0 0 1) (1 10 1) (0 0 1) 
)
(
 (0 0 1) (1 10 1) (0 0 1) 
)
(
 (0 0 1) (1 10 1) (0 0 1) 
)
(
 (0 0 1) (1 10 1) (0 0 1) 
)
(
 (0 0 1) (1 10 1) (0 0 1) 
)
(
 (0 0 1) (1 10 1) (0 0 1) 
)
(
 (0 0 1) (1 10 1) (0 0 1) 
)
(
 (0 0 1) (1 10 1) (0 0 1) 
)
(
 (0 0 1) (1 10 1) (0 0 1) 
)
(
 (0 0 1) (1 10 1) (0 0 1) 
)
)
// block id 20 
hex (67 82 85 80 25 27 41 40)  (10 10 10) edgeGrading (
(
 (0 0 1) (1 10 1) (0 0 1) 
)
(
 (0 0 1) (1 10 1) (0 0 1) 
)
(
 (0 0 1) (1 10 1) (0 0 1) 
)
(
 (0 0 1) (1 10 1) (0 0 1) 
)
(
 (0 0 1) (1 10 1) (0 0 1) 
)
(
 (0 0 1) (1 10 1) (0 0 1) 
)
(
 (0 0 1) (1 10 1) (0 0 1) 
)
(
 (0 0 1) (1 10 1) (0 0 1) 
)
(
 (0 0 1) (1 10 1) (0 0 1) 
)
(
 (0 0 1) (1 10 1) (0 0 1) 
)
(
 (0 0 1) (1 10 1) (0 0 1) 
)
(
 (0 0 1) (1 10 1) (0 0 1) 
)
)
// block id 21 
hex (68 69 73 72 28 30 33 31)  (10 10 10) edgeGrading (
(
 (0 0 1) (1 10 1) (0 0 1) 
)
(
 (0 0 1) (1 10 1) (0 0 1) 
)
(
 (0 0 1) (1 10 1) (0 0 1) 
)
(
 (0 0 1) (1 10 1) (0 0 1) 
)
(
 (0 0 1) (1 10 1) (0 0 1) 
)
(
 (0 0 1) (1 10 1) (0 0 1) 
)
(
 (0 0 1) (1 10 1) (0 0 1) 
)
(
 (0 0 1) (1 10 1) (0 0 1) 
)
(
 (0 0 1) (1 10 1) (0 0 1) 
)
(
 (0 0 1) (1 10 1) (0 0 1) 
)
(
 (0 0 1) (1 10 1) (0 0 1) 
)
(
 (0 0 1) (1 10 1) (0 0 1) 
)
)
// block id 22 
hex (29 30 33 32 71 69 73 70)  (10 10 10) edgeGrading (
(
 (0 0 1) (1 10 1) (0 0 1) 
)
(
 (0 0 1) (1 10 1) (0 0 1) 
)
(
 (0 0 1) (1 10 1) (0 0 1) 
)
(
 (0 0 1) (1 10 1) (0 0 1) 
)
(
 (0 0 1) (1 10 1) (0 0 1) 
)
(
 (0 0 1) (1 10 1) (0 0 1) 
)
(
 (0 0 1) (1 10 1) (0 0 1) 
)
(
 (0 0 1) (1 10 1) (0 0 1) 
)
(
 (0 0 1) (1 10 1) (0 0 1) 
)
(
 (0 0 1) (1 10 1) (0 0 1) 
)
(
 (0 0 1) (1 10 1) (0 0 1) 
)
(
 (0 0 1) (1 10 1) (0 0 1) 
)
)
// block id 23 
hex (72 73 74 76 31 33 36 34)  (10 10 10) edgeGrading (
(
 (0 0 1) (1 10 1) (0 0 1) 
)
(
 (0 0 1) (1 10 1) (0 0 1) 
)
(
 (0 0 1) (1 10 1) (0 0 1) 
)
(
 (0 0 1) (1 10 1) (0 0 1) 
)
(
 (0 0 1) (1 10 1) (0 0 1) 
)
(
 (0 0 1) (1 10 1) (0 0 1) 
)
(
 (0 0 1) (1 10 1) (0 0 1) 
)
(
 (0 0 1) (1 10 1) (0 0 1) 
)
(
 (0 0 1) (1 10 1) (0 0 1) 
)
(
 (0 0 1) (1 10 1) (0 0 1) 
)
(
 (0 0 1) (1 10 1) (0 0 1) 
)
(
 (0 0 1) (1 10 1) (0 0 1) 
)
)
// block id 24 
hex (32 33 36 35 70 73 74 75)  (10 10 10) edgeGrading (
(
 (0 0 1) (1 10 1) (0 0 1) 
)
(
 (0 0 1) (1 10 1) (0 0 1) 
)
(
 (0 0 1) (1 10 1) (0 0 1) 
)
(
 (0 0 1) (1 10 1) (0 0 1) 
)
(
 (0 0 1) (1 10 1) (0 0 1) 
)
(
 (0 0 1) (1 10 1) (0 0 1) 
)
(
 (0 0 1) (1 10 1) (0 0 1) 
)
(
 (0 0 1) (1 10 1) (0 0 1) 
)
(
 (0 0 1) (1 10 1) (0 0 1) 
)
(
 (0 0 1) (1 10 1) (0 0 1) 
)
(
 (0 0 1) (1 10 1) (0 0 1) 
)
(
 (0 0 1) (1 10 1) (0 0 1) 
)
)
// block id 25 
hex (76 74 78 77 34 36 39 37)  (10 10 10) edgeGrading (
(
 (0 0 1) (1 10 1) (0 0 1) 
)
(
 (0 0 1) (1 10 1) (0 0 1) 
)
(
 (0 0 1) (1 10 1) (0 0 1) 
)
(
 (0 0 1) (1 10 1) (0 0 1) 
)
(
 (0 0 1) (1 10 1) (0 0 1) 
)
(
 (0 0 1) (1 10 1) (0 0 1) 
)
(
 (0 0 1) (1 10 1) (0 0 1) 
)
(
 (0 0 1) (1 10 1) (0 0 1) 
)
(
 (0 0 1) (1 10 1) (0 0 1) 
)
(
 (0 0 1) (1 10 1) (0 0 1) 
)
(
 (0 0 1) (1 10 1) (0 0 1) 
)
(
 (0 0 1) (1 10 1) (0 0 1) 
)
)
// block id 26 
hex (35 36 39 38 75 74 78 79)  (10 10 10) edgeGrading (
(
 (0 0 1) (1 10 1) (0 0 1) 
)
(
 (0 0 1) (1 10 1) (0 0 1) 
)
(
 (0 0 1) (1 10 1) (0 0 1) 
)
(
 (0 0 1) (1 10 1) (0 0 1) 
)
(
 (0 0 1) (1 10 1) (0 0 1) 
)
(
 (0 0 1) (1 10 1) (0 0 1) 
)
(
 (0 0 1) (1 10 1) (0 0 1) 
)
(
 (0 0 1) (1 10 1) (0 0 1) 
)
(
 (0 0 1) (1 10 1) (0 0 1) 
)
(
 (0 0 1) (1 10 1) (0 0 1) 
)
(
 (0 0 1) (1 10 1) (0 0 1) 
)
(
 (0 0 1) (1 10 1) (0 0 1) 
)
)
);

patches
(
     wall walls
    (
        (7 45 43 6)
        (8 44 45 7)
        (9 46 44 8)
        (10 50 46 9)
        (11 53 50 10)
        (12 51 53 11)
        (5 55 54 4)
        (6 43 55 5)
        (23 83 65 22)
        (2 56 67 25)
        (1 59 56 2)
        (26 61 59 1)
        (0 62 61 26)
        (22 65 64 3)
        (28 68 66 24)
        (25 67 71 29)
        (31 72 68 28)
        (29 71 70 32)
        (34 76 72 31)
        (32 70 75 35)
        (37 77 76 34)
        (39 78 77 37)
        (38 79 78 39)
        (35 75 79 38)
        (24 66 84 42)
        (42 84 83 23)
    )
     wall ends
    (
        (15 41 42 23)
        (42 41 27 24)
        (40 41 15 16)
        (27 41 40 25)
        (16 17 25 40)
        (36 35 38 39)
        (34 36 39 37)
        (33 32 35 36)
        (31 33 36 34)
        (30 29 32 33)
        (28 30 33 31)
        (27 25 29 30)
        (24 27 30 28)
        (13 14 22 3)
        (20 21 0 26)
        (19 20 26 1)
        (18 19 1 2)
        (17 18 2 25)
        (14 15 23 22)
        (6 5 20 19)
        (5 4 21 20)
        (12 11 14 13)
        (11 10 15 14)
        (10 9 16 15)
        (9 8 17 16)
        (8 7 18 17)
        (7 6 19 18)
        (45 57 58 43)
        (44 81 57 45)
        (46 47 81 44)
        (50 49 47 46)
        (53 48 49 50)
        (51 52 48 53)
        (13 52 51 12)
        (55 60 63 54)
        (4 54 63 21)
        (43 58 60 55)
        (48 65 83 49)
        (81 67 56 57)
        (57 56 59 58)
        (58 59 61 60)
        (60 61 62 63)
        (21 63 62 0)
        (52 64 65 48)
        (3 64 52 13)
        (66 68 69 82)
        (82 69 71 67)
        (68 72 73 69)
        (69 73 70 71)
        (72 76 74 73)
        (73 74 75 70)
        (76 77 78 74)
        (74 78 79 75)
        (47 80 67 81)
        (82 67 80 85)
        (80 47 49 85)
        (84 66 82 85)
        (49 83 84 85)
    )
);