/*--------------------------------*- C++ -*----------------------------------*\
  =========                 |
  \\      /  F ield         | OpenFOAM: The Open Source CFD Toolbox
   \\    /   O peration     | Website:  https://openfoam.org
    \\  /    A nd           | Version:  12
     \\/     M anipulation  |
\*---------------------------------------------------------------------------*/
FoamFile
{
    format      ascii;
    class       dictionary;
    object      createBafflesDict;
}
// * * * * * * * * * * * * * * * * * * * * * * * * * * * * * * * * * * * * * //

internalFacesOnly true;
fields false;

baffles
{
    baffleFaces
    {
        type            faceZone;
        zoneName        baffleZone;

        owner // OF.org
        {
            name        baffle;
            type        wall;
        }

        neighbour
        {
            name        baffle_slave;
            type        wall;
        }

        patches // OF.com
        {
            owner
            {
                name        baffle;
                type        wall;
            }

            neighbour
            {
                name        baffle_slave;
                type        wall;
            }
        }
    }
}


// ************************************************************************* //
