FoamFile
{
    format      ascii;
    class       dictionary;
    object      extrudeMeshDict;
}
// * * * * * * * * * * * * * * * * * * * * * * * * * * * * * * * * * * * * * //

constructFrom mesh;
sourceCase ".";
sourcePatches (walls);
flipNormals false;
extrudeModel        linearNormal;
nLayers             5;
expansionRatio      1.0;
linearNormalCoeffs
{
    thickness       1.0;
}
mergeFaces false;
mergeTol 0;

// * * * * * * * * * * * * * * * * * * * * * * * * * * * * * * * * * * * * * //
