
/*--------------------------------*- C++ -*----------------------------------*/

// File was generated by SwiftBlock, a Blender 3D addon.

FoamFile
{
    version     2.0;
    format      ascii;
    class       dictionary;
    object      blockMeshDict;
}
// * * * * * * * * * * * * * * * * * * * * * * * * * * * * * * * * * * * * * //

deltaT          1;

writeInterval   1;



// ************************************************************************* //


geometry
{
   Sphere
   {
      type triSurfaceMesh;
      file "Sphere.stl";
   }
}
vertices
(
    project (-1.0 -1.0 -1.0) (Sphere)
    project (-1.0 -1.0 1.0) (Sphere)
    project (-1.0 1.0 -1.0) (Sphere)
    project (-1.0 1.0 1.0) (Sphere)
    project (1.0 -1.0 -1.0) (Sphere)
    project (1.0 -1.0 1.0) (Sphere)
    project (1.0 1.0 -1.0) (Sphere)
    project (1.0 1.0 1.0) (Sphere)
    (-3.0 3.0 3.0)
    (-15.0 3.0 -3.0)
    (3.0 -3.0 3.0)
    (-15.0 3.0 3.0)
    (-15.0 -3.0 3.0)
    (-15.0 -3.0 -3.0)
    (-3.0 -3.0 3.0)
    (-3.0 -3.0 -3.0)
    (-3.0 3.0 -3.0)
    (3.0 3.0 -3.0)
    (3.0 -3.0 -3.0)
    (9.0 -3.0 3.0)
    (3.0 3.0 3.0)
    (9.0 3.0 3.0)
    (9.0 3.0 -3.0)
    (9.0 -3.0 -3.0)
);
edges
(
    projectCurve 0 2 (Sphere)
    projectCurve 0 1 (Sphere)
    projectCurve 1 3 (Sphere)
    projectCurve 2 3 (Sphere)
    projectCurve 2 6 (Sphere)
    projectCurve 3 7 (Sphere)
    projectCurve 6 7 (Sphere)
    projectCurve 4 6 (Sphere)
    projectCurve 5 7 (Sphere)
    projectCurve 4 5 (Sphere)
    projectCurve 0 4 (Sphere)
    projectCurve 1 5 (Sphere)
);
faces
(
    project (7 3 1 5) Sphere
    project (2 6 4 0) Sphere
    project (4 5 1 0) Sphere
    project (6 7 5 4) Sphere
    project (2 3 7 6) Sphere
    project (0 1 3 2) Sphere
);
blocks
(
// block id 0 
hex (15 16 8 14 0 2 3 1)  (9 9 19) edgeGrading (
(
 (0 0 1) (1 9 1) (0 0 1) 
)
(
 (0 0 1) (1 9 1) (0 0 1) 
)
(
 (0 0 1) (1 9 1) (0 0 1) 
)
(
 (0 0 1) (1 9 1) (0 0 1) 
)
(
 (0 0 1) (1 9 1) (0 0 1) 
)
(
 (0 0 1) (1 9 1) (0 0 1) 
)
(
 (0 0 1) (1 9 1) (0 0 1) 
)
(
 (0 0 1) (1 9 1) (0 0 1) 
)
(
 (0 0 1) (1 19 1) (0 0 1) 
)
(
 (0 0 1) (1 19 1) (0 0 1) 
)
(
 (0 0 1) (1 19 1) (0 0 1) 
)
(
 (0 0 1) (1 19 1) (0 0 1) 
)
)
// block id 1 
hex (15 14 10 18 0 1 5 4)  (9 9 19) edgeGrading (
(
 (0 0 1) (1 9 1) (0 0 1) 
)
(
 (0 0 1) (1 9 1) (0 0 1) 
)
(
 (0 0 1) (1 9 1) (0 0 1) 
)
(
 (0 0 1) (1 9 1) (0 0 1) 
)
(
 (0 0 1) (1 9 1) (0 0 1) 
)
(
 (0 0 1) (1 9 1) (0 0 1) 
)
(
 (0 0 1) (1 9 1) (0 0 1) 
)
(
 (0 0 1) (1 9 1) (0 0 1) 
)
(
 (0 0 1) (1 19 1) (0 0 1) 
)
(
 (0 0 1) (1 19 1) (0 0 1) 
)
(
 (0 0 1) (1 19 1) (0 0 1) 
)
(
 (0 0 1) (1 19 1) (0 0 1) 
)
)
// block id 2 
hex (0 2 6 4 15 16 17 18)  (9 9 19) edgeGrading (
(
 (0 0 1) (1 9 1) (0 0 1) 
)
(
 (0 0 1) (1 9 1) (0 0 1) 
)
(
 (0 0 1) (1 9 1) (0 0 1) 
)
(
 (0 0 1) (1 9 1) (0 0 1) 
)
(
 (0 0 1) (1 9 1) (0 0 1) 
)
(
 (0 0 1) (1 9 1) (0 0 1) 
)
(
 (0 0 1) (1 9 1) (0 0 1) 
)
(
 (0 0 1) (1 9 1) (0 0 1) 
)
(
 (0 0 1) (1 19 1) (0 0 1) 
)
(
 (0 0 1) (1 19 1) (0 0 1) 
)
(
 (0 0 1) (1 19 1) (0 0 1) 
)
(
 (0 0 1) (1 19 1) (0 0 1) 
)
)
// block id 3 
hex (14 8 20 10 1 3 7 5)  (9 9 19) edgeGrading (
(
 (0 0 1) (1 9 1) (0 0 1) 
)
(
 (0 0 1) (1 9 1) (0 0 1) 
)
(
 (0 0 1) (1 9 1) (0 0 1) 
)
(
 (0 0 1) (1 9 1) (0 0 1) 
)
(
 (0 0 1) (1 9 1) (0 0 1) 
)
(
 (0 0 1) (1 9 1) (0 0 1) 
)
(
 (0 0 1) (1 9 1) (0 0 1) 
)
(
 (0 0 1) (1 9 1) (0 0 1) 
)
(
 (0 0 1) (1 19 1) (0 0 1) 
)
(
 (0 0 1) (1 19 1) (0 0 1) 
)
(
 (0 0 1) (1 19 1) (0 0 1) 
)
(
 (0 0 1) (1 19 1) (0 0 1) 
)
)
// block id 4 
hex (2 3 7 6 16 8 20 17)  (9 9 19) edgeGrading (
(
 (0 0 1) (1 9 1) (0 0 1) 
)
(
 (0 0 1) (1 9 1) (0 0 1) 
)
(
 (0 0 1) (1 9 1) (0 0 1) 
)
(
 (0 0 1) (1 9 1) (0 0 1) 
)
(
 (0 0 1) (1 9 1) (0 0 1) 
)
(
 (0 0 1) (1 9 1) (0 0 1) 
)
(
 (0 0 1) (1 9 1) (0 0 1) 
)
(
 (0 0 1) (1 9 1) (0 0 1) 
)
(
 (0 0 1) (1 19 1) (0 0 1) 
)
(
 (0 0 1) (1 19 1) (0 0 1) 
)
(
 (0 0 1) (1 19 1) (0 0 1) 
)
(
 (0 0 1) (1 19 1) (0 0 1) 
)
)
// block id 5 
hex (4 6 7 5 18 17 20 10)  (9 9 19) edgeGrading (
(
 (0 0 1) (1 9 1) (0 0 1) 
)
(
 (0 0 1) (1 9 1) (0 0 1) 
)
(
 (0 0 1) (1 9 1) (0 0 1) 
)
(
 (0 0 1) (1 9 1) (0 0 1) 
)
(
 (0 0 1) (1 9 1) (0 0 1) 
)
(
 (0 0 1) (1 9 1) (0 0 1) 
)
(
 (0 0 1) (1 9 1) (0 0 1) 
)
(
 (0 0 1) (1 9 1) (0 0 1) 
)
(
 (0 0 1) (1 19 1) (0 0 1) 
)
(
 (0 0 1) (1 19 1) (0 0 1) 
)
(
 (0 0 1) (1 19 1) (0 0 1) 
)
(
 (0 0 1) (1 19 1) (0 0 1) 
)
)
// block id 6 
hex (8 11 9 16 14 12 13 15)  (9 9 9) edgeGrading (
(
 (0 0 1) (1 9 1) (0 0 1) 
)
(
 (0 0 1) (1 9 1) (0 0 1) 
)
(
 (0 0 1) (1 9 1) (0 0 1) 
)
(
 (0 0 1) (1 9 1) (0 0 1) 
)
(
 (0 0 1) (1 9 1) (0 0 1) 
)
(
 (0 0 1) (1 9 1) (0 0 1) 
)
(
 (0 0 1) (1 9 1) (0 0 1) 
)
(
 (0 0 1) (1 9 1) (0 0 1) 
)
(
 (0 0 1) (1 9 1) (0 0 1) 
)
(
 (0 0 1) (1 9 1) (0 0 1) 
)
(
 (0 0 1) (1 9 1) (0 0 1) 
)
(
 (0 0 1) (1 9 1) (0 0 1) 
)
)
// block id 7 
hex (19 21 22 23 10 20 17 18)  (9 9 9) edgeGrading (
(
 (0 0 1) (1 9 1) (0 0 1) 
)
(
 (0 0 1) (1 9 1) (0 0 1) 
)
(
 (0 0 1) (1 9 1) (0 0 1) 
)
(
 (0 0 1) (1 9 1) (0 0 1) 
)
(
 (0 0 1) (1 9 1) (0 0 1) 
)
(
 (0 0 1) (1 9 1) (0 0 1) 
)
(
 (0 0 1) (1 9 1) (0 0 1) 
)
(
 (0 0 1) (1 9 1) (0 0 1) 
)
(
 (0 0 1) (1 9 1) (0 0 1) 
)
(
 (0 0 1) (1 9 1) (0 0 1) 
)
(
 (0 0 1) (1 9 1) (0 0 1) 
)
(
 (0 0 1) (1 9 1) (0 0 1) 
)
)
);

patches
(
     wall wall_sphere
    (
        (7 3 1 5)
        (2 6 4 0)
        (4 5 1 0)
        (6 7 5 4)
        (2 3 7 6)
        (0 1 3 2)
    )
     patch inlet
    (
        (13 12 11 9)
    )
     patch outlet
    (
        (22 21 19 23)
    )
     wall wall_outer
    (
        (16 15 13 9)
        (16 8 20 17)
        (10 18 23 19)
        (8 16 9 11)
        (18 10 14 15)
        (14 8 11 12)
        (16 17 18 15)
        (15 14 12 13)
        (20 8 14 10)
        (20 10 19 21)
        (18 17 22 23)
        (17 20 21 22)
    )
);