
/*--------------------------------*- C++ -*----------------------------------*/

// File was generated by SwiftBlock, a Blender 3D addon.

FoamFile
{
    version     2.0;
    format      ascii;
    class       dictionary;
    object      blockMeshDict;
}
// * * * * * * * * * * * * * * * * * * * * * * * * * * * * * * * * * * * * * //

deltaT          1;

writeInterval   1;



// ************************************************************************* //


geometry
{
   surfaces_top
   {
      type triSurfaceMesh;
      file "surfaces_top.stl";
   }
   surfaces_bot
   {
      type triSurfaceMesh;
      file "surfaces_bot.stl";
   }
   surfaces_mid
   {
      type triSurfaceMesh;
      file "surfaces_mid.stl";
   }
}
vertices
(
    (-0.75 -0.75 0.0)
    (0.75 -0.75 0.0)
    (-0.75 0.75 0.0)
    (0.75 0.75 0.0)
    project (-2.0 2.0 0.0) (surfaces_top surfaces_mid)
    project (-2.0 -2.0 0.0) (surfaces_top surfaces_mid)
    project (2.0 -2.0 0.0) (surfaces_top surfaces_mid)
    project (2.0 2.0 0.0) (surfaces_top surfaces_mid)
    (0.375 0.375 -2.0)
    project (-1.0 -1.0 -2.0) (surfaces_mid surfaces_bot)
    project (-2.0 -2.0 2.0) (surfaces_top)
    (0.75 -0.75 2.0)
    project (2.0 2.0 2.0) (surfaces_top)
    project (2.0 -2.0 2.0) (surfaces_top)
    project (1.0 1.0 -2.0) (surfaces_mid surfaces_bot)
    (-0.75 -0.75 2.0)
    project (-1.0 1.0 -2.0) (surfaces_mid surfaces_bot)
    (-0.375 0.375 -2.0)
    (0.75 0.75 2.0)
    (-0.75 0.75 2.0)
    project (-2.0 2.0 2.0) (surfaces_top)
    (0.375 -0.375 -2.0)
    project (1.0 -1.0 -2.0) (surfaces_mid surfaces_bot)
    (-0.375 -0.375 -2.0)
    (-0.375 0.375 -4.0)
    (-0.375 -0.375 -4.0)
    project (-1.0 -1.0 -4.0) (surfaces_bot)
    project (-1.0 1.0 -4.0) (surfaces_bot)
    project (1.0 1.0 -4.0) (surfaces_bot)
    project (1.0 -1.0 -4.0) (surfaces_bot)
    (0.375 0.375 -4.0)
    (0.375 -0.375 -4.0)
);
edges
(
    projectCurve 5 4 (surfaces_top surfaces_mid)
    projectCurve 5 6 (surfaces_top surfaces_mid)
    projectCurve 6 7 (surfaces_top surfaces_mid)
    projectCurve 4 7 (surfaces_top surfaces_mid)
    projectCurve 10 5 (surfaces_top)
    projectCurve 13 12 (surfaces_top)
    projectCurve 12 7 (surfaces_top)
    projectCurve 13 6 (surfaces_top)
    projectCurve 20 4 (surfaces_top)
    projectCurve 10 13 (surfaces_top)
    projectCurve 10 20 (surfaces_top)
    projectCurve 20 12 (surfaces_top)
    projectCurve 5 9 (surfaces_mid)
    projectCurve 7 14 (surfaces_mid)
    projectCurve 4 16 (surfaces_mid)
    projectCurve 16 14 (surfaces_mid surfaces_bot)
    projectCurve 6 22 (surfaces_mid)
    projectCurve 9 22 (surfaces_mid surfaces_bot)
    projectCurve 22 14 (surfaces_mid surfaces_bot)
    projectCurve 9 16 (surfaces_mid surfaces_bot)
    projectCurve 26 9 (surfaces_bot)
    projectCurve 27 28 (surfaces_bot)
    projectCurve 27 16 (surfaces_bot)
    projectCurve 28 14 (surfaces_bot)
    projectCurve 29 22 (surfaces_bot)
    projectCurve 26 27 (surfaces_bot)
    projectCurve 29 28 (surfaces_bot)
    projectCurve 26 29 (surfaces_bot)
);
faces
(
    project (5 10 13 6) surfaces_top
    project (6 13 12 7) surfaces_top
    project (4 20 10 5) surfaces_top
    project (7 12 20 4) surfaces_top
    project (7 14 16 4) surfaces_mid
    project (4 16 9 5) surfaces_mid
    project (6 22 14 7) surfaces_mid
    project (5 9 22 6) surfaces_mid
    project (16 27 26 9) surfaces_bot
    project (14 28 27 16) surfaces_bot
    project (22 29 28 14) surfaces_bot
    project (9 26 29 22) surfaces_bot
);
blocks
(
// block id 0 
hex (15 19 18 11 0 2 3 1)  (5 5 5) edgeGrading (
(
 (0 0 1) (1 5 1) (0 0 1) 
)
(
 (0 0 1) (1 5 1) (0 0 1) 
)
(
 (0 0 1) (1 5 1) (0 0 1) 
)
(
 (0 0 1) (1 5 1) (0 0 1) 
)
(
 (0 0 1) (1 5 1) (0 0 1) 
)
(
 (0 0 1) (1 5 1) (0 0 1) 
)
(
 (0 0 1) (1 5 1) (0 0 1) 
)
(
 (0 0 1) (1 5 1) (0 0 1) 
)
(
 (0 0 1) (1 5 1) (0 0 1) 
)
(
 (0 0 1) (1 5 1) (0 0 1) 
)
(
 (0 0 1) (1 5 1) (0 0 1) 
)
(
 (0 0 1) (1 5 1) (0 0 1) 
)
)
// block id 1 
hex (0 2 3 1 23 17 8 21)  (5 5 5) edgeGrading (
(
 (0 0 1) (1 5 1) (0 0 1) 
)
(
 (0 0 1) (1 5 1) (0 0 1) 
)
(
 (0 0 1) (1 5 1) (0 0 1) 
)
(
 (0 0 1) (1 5 1) (0 0 1) 
)
(
 (0 0 1) (1 5 1) (0 0 1) 
)
(
 (0 0 1) (1 5 1) (0 0 1) 
)
(
 (0 0 1) (1 5 1) (0 0 1) 
)
(
 (0 0 1) (1 5 1) (0 0 1) 
)
(
 (0 0 1) (1 5 1) (0 0 1) 
)
(
 (0 0 1) (1 5 1) (0 0 1) 
)
(
 (0 0 1) (1 5 1) (0 0 1) 
)
(
 (0 0 1) (1 5 1) (0 0 1) 
)
)
// block id 2 
hex (15 11 13 10 0 1 6 5)  (5 5 5) edgeGrading (
(
 (0 0 1) (1 5 1) (0 0 1) 
)
(
 (0 0 1) (1 5 1) (0 0 1) 
)
(
 (0 0 1) (1 5 1) (0 0 1) 
)
(
 (0 0 1) (1 5 1) (0 0 1) 
)
(
 (0 0 1) (0 0 1) (1.76777 6 0.207176) 
)
(
 (0 0 1) (0 0 1) (1.76777 6 0.207176) 
)
(
 (0 0 1) (0 0 1) (1.76777 6 0.207176) 
)
(
 (0 0 1) (0 0 1) (1.76777 6 0.207176) 
)
(
 (0 0 1) (1 5 1) (0 0 1) 
)
(
 (0 0 1) (1 5 1) (0 0 1) 
)
(
 (0 0 1) (1 5 1) (0 0 1) 
)
(
 (0 0 1) (1 5 1) (0 0 1) 
)
)
// block id 3 
hex (0 1 6 5 23 21 22 9)  (5 5 5) edgeGrading (
(
 (0 0 1) (1 5 1) (0 0 1) 
)
(
 (0 0 1) (1 5 1) (0 0 1) 
)
(
 (0 0 1) (1 5 1) (0 0 1) 
)
(
 (0 0 1) (1 5 1) (0 0 1) 
)
(
 (0 0 1) (0 0 1) (1.76777 6 0.207176) 
)
(
 (0 0 1) (0 0 1) (1.76777 6 0.207176) 
)
(
 (0 0 1) (0 0 1) (0.883883 6 0.207176) 
)
(
 (0 0 1) (0 0 1) (0.883883 6 0.207176) 
)
(
 (0 0 1) (1 5 1) (0 0 1) 
)
(
 (0 0 1) (1 5 1) (0 0 1) 
)
(
 (0 0 1) (1 5 1) (0 0 1) 
)
(
 (0 0 1) (1 5 1) (0 0 1) 
)
)
// block id 4 
hex (0 2 4 5 15 19 20 10)  (5 5 5) edgeGrading (
(
 (0 0 1) (1 5 1) (0 0 1) 
)
(
 (0 0 1) (1 5 1) (0 0 1) 
)
(
 (0 0 1) (1 5 1) (0 0 1) 
)
(
 (0 0 1) (1 5 1) (0 0 1) 
)
(
 (0 0 1) (0 0 1) (1.76777 6 0.207176) 
)
(
 (0 0 1) (0 0 1) (1.76777 6 0.207176) 
)
(
 (0 0 1) (0 0 1) (1.76777 6 0.207176) 
)
(
 (0 0 1) (0 0 1) (1.76777 6 0.207176) 
)
(
 (0 0 1) (1 5 1) (0 0 1) 
)
(
 (0 0 1) (1 5 1) (0 0 1) 
)
(
 (0 0 1) (1 5 1) (0 0 1) 
)
(
 (0 0 1) (1 5 1) (0 0 1) 
)
)
// block id 5 
hex (23 17 16 9 0 2 4 5)  (5 5 5) edgeGrading (
(
 (0 0 1) (1 5 1) (0 0 1) 
)
(
 (0 0 1) (1 5 1) (0 0 1) 
)
(
 (0 0 1) (1 5 1) (0 0 1) 
)
(
 (0 0 1) (1 5 1) (0 0 1) 
)
(
 (0 0 1) (0 0 1) (0.883883 6 0.207176) 
)
(
 (0 0 1) (0 0 1) (0.883883 6 0.207176) 
)
(
 (0 0 1) (0 0 1) (1.76777 6 0.207176) 
)
(
 (0 0 1) (0 0 1) (1.76777 6 0.207176) 
)
(
 (0 0 1) (1 5 1) (0 0 1) 
)
(
 (0 0 1) (1 5 1) (0 0 1) 
)
(
 (0 0 1) (1 5 1) (0 0 1) 
)
(
 (0 0 1) (1 5 1) (0 0 1) 
)
)
// block id 6 
hex (1 3 7 6 21 8 14 22)  (5 5 5) edgeGrading (
(
 (0 0 1) (1 5 1) (0 0 1) 
)
(
 (0 0 1) (1 5 1) (0 0 1) 
)
(
 (0 0 1) (1 5 1) (0 0 1) 
)
(
 (0 0 1) (1 5 1) (0 0 1) 
)
(
 (0 0 1) (0 0 1) (1.76777 6 0.207176) 
)
(
 (0 0 1) (0 0 1) (1.76777 6 0.207176) 
)
(
 (0 0 1) (0 0 1) (0.883883 6 0.207176) 
)
(
 (0 0 1) (0 0 1) (0.883883 6 0.207176) 
)
(
 (0 0 1) (1 5 1) (0 0 1) 
)
(
 (0 0 1) (1 5 1) (0 0 1) 
)
(
 (0 0 1) (1 5 1) (0 0 1) 
)
(
 (0 0 1) (1 5 1) (0 0 1) 
)
)
// block id 7 
hex (11 18 12 13 1 3 7 6)  (5 5 5) edgeGrading (
(
 (0 0 1) (1 5 1) (0 0 1) 
)
(
 (0 0 1) (1 5 1) (0 0 1) 
)
(
 (0 0 1) (1 5 1) (0 0 1) 
)
(
 (0 0 1) (1 5 1) (0 0 1) 
)
(
 (0 0 1) (0 0 1) (1.76777 6 0.207176) 
)
(
 (0 0 1) (0 0 1) (1.76777 6 0.207176) 
)
(
 (0 0 1) (0 0 1) (1.76777 6 0.207176) 
)
(
 (0 0 1) (0 0 1) (1.76777 6 0.207176) 
)
(
 (0 0 1) (1 5 1) (0 0 1) 
)
(
 (0 0 1) (1 5 1) (0 0 1) 
)
(
 (0 0 1) (1 5 1) (0 0 1) 
)
(
 (0 0 1) (1 5 1) (0 0 1) 
)
)
// block id 8 
hex (17 8 14 16 2 3 7 4)  (5 5 5) edgeGrading (
(
 (0 0 1) (1 5 1) (0 0 1) 
)
(
 (0 0 1) (1 5 1) (0 0 1) 
)
(
 (0 0 1) (1 5 1) (0 0 1) 
)
(
 (0 0 1) (1 5 1) (0 0 1) 
)
(
 (0 0 1) (0 0 1) (0.883883 6 0.207176) 
)
(
 (0 0 1) (0 0 1) (0.883883 6 0.207176) 
)
(
 (0 0 1) (0 0 1) (1.76777 6 0.207176) 
)
(
 (0 0 1) (0 0 1) (1.76777 6 0.207176) 
)
(
 (0 0 1) (1 5 1) (0 0 1) 
)
(
 (0 0 1) (1 5 1) (0 0 1) 
)
(
 (0 0 1) (1 5 1) (0 0 1) 
)
(
 (0 0 1) (1 5 1) (0 0 1) 
)
)
// block id 9 
hex (2 3 7 4 19 18 12 20)  (5 5 5) edgeGrading (
(
 (0 0 1) (1 5 1) (0 0 1) 
)
(
 (0 0 1) (1 5 1) (0 0 1) 
)
(
 (0 0 1) (1 5 1) (0 0 1) 
)
(
 (0 0 1) (1 5 1) (0 0 1) 
)
(
 (0 0 1) (0 0 1) (1.76777 6 0.207176) 
)
(
 (0 0 1) (0 0 1) (1.76777 6 0.207176) 
)
(
 (0 0 1) (0 0 1) (1.76777 6 0.207176) 
)
(
 (0 0 1) (0 0 1) (1.76777 6 0.207176) 
)
(
 (0 0 1) (1 5 1) (0 0 1) 
)
(
 (0 0 1) (1 5 1) (0 0 1) 
)
(
 (0 0 1) (1 5 1) (0 0 1) 
)
(
 (0 0 1) (1 5 1) (0 0 1) 
)
)
// block id 10 
hex (30 28 27 24 8 14 16 17)  (5 5 5) edgeGrading (
(
 (0 0 1) (0 0 1) (0.883883 6 0.207176) 
)
(
 (0 0 1) (0 0 1) (0.883883 6 0.207176) 
)
(
 (0 0 1) (0 0 1) (0.883883 6 0.207176) 
)
(
 (0 0 1) (0 0 1) (0.883883 6 0.207176) 
)
(
 (0 0 1) (1 5 1) (0 0 1) 
)
(
 (0 0 1) (1 5 1) (0 0 1) 
)
(
 (0 0 1) (1 5 1) (0 0 1) 
)
(
 (0 0 1) (1 5 1) (0 0 1) 
)
(
 (0 0 1) (1 5 1) (0 0 1) 
)
(
 (0 0 1) (1 5 1) (0 0 1) 
)
(
 (0 0 1) (1 5 1) (0 0 1) 
)
(
 (0 0 1) (1 5 1) (0 0 1) 
)
)
// block id 11 
hex (8 14 22 21 30 28 29 31)  (5 5 5) edgeGrading (
(
 (0 0 1) (0 0 1) (0.883883 6 0.207176) 
)
(
 (0 0 1) (0 0 1) (0.883883 6 0.207176) 
)
(
 (0 0 1) (0 0 1) (0.883883 6 0.207176) 
)
(
 (0 0 1) (0 0 1) (0.883883 6 0.207176) 
)
(
 (0 0 1) (1 5 1) (0 0 1) 
)
(
 (0 0 1) (1 5 1) (0 0 1) 
)
(
 (0 0 1) (1 5 1) (0 0 1) 
)
(
 (0 0 1) (1 5 1) (0 0 1) 
)
(
 (0 0 1) (1 5 1) (0 0 1) 
)
(
 (0 0 1) (1 5 1) (0 0 1) 
)
(
 (0 0 1) (1 5 1) (0 0 1) 
)
(
 (0 0 1) (1 5 1) (0 0 1) 
)
)
// block id 12 
hex (8 21 23 17 30 31 25 24)  (5 5 5) edgeGrading (
(
 (0 0 1) (1 5 1) (0 0 1) 
)
(
 (0 0 1) (1 5 1) (0 0 1) 
)
(
 (0 0 1) (1 5 1) (0 0 1) 
)
(
 (0 0 1) (1 5 1) (0 0 1) 
)
(
 (0 0 1) (1 5 1) (0 0 1) 
)
(
 (0 0 1) (1 5 1) (0 0 1) 
)
(
 (0 0 1) (1 5 1) (0 0 1) 
)
(
 (0 0 1) (1 5 1) (0 0 1) 
)
(
 (0 0 1) (1 5 1) (0 0 1) 
)
(
 (0 0 1) (1 5 1) (0 0 1) 
)
(
 (0 0 1) (1 5 1) (0 0 1) 
)
(
 (0 0 1) (1 5 1) (0 0 1) 
)
)
// block id 13 
hex (26 25 24 27 9 23 17 16)  (5 5 5) edgeGrading (
(
 (0.883883 6 4.82681) (0 0 1) (0 0 1) 
)
(
 (0.883883 6 4.82681) (0 0 1) (0 0 1) 
)
(
 (0.883883 6 4.82681) (0 0 1) (0 0 1) 
)
(
 (0.883883 6 4.82681) (0 0 1) (0 0 1) 
)
(
 (0 0 1) (1 5 1) (0 0 1) 
)
(
 (0 0 1) (1 5 1) (0 0 1) 
)
(
 (0 0 1) (1 5 1) (0 0 1) 
)
(
 (0 0 1) (1 5 1) (0 0 1) 
)
(
 (0 0 1) (1 5 1) (0 0 1) 
)
(
 (0 0 1) (1 5 1) (0 0 1) 
)
(
 (0 0 1) (1 5 1) (0 0 1) 
)
(
 (0 0 1) (1 5 1) (0 0 1) 
)
)
// block id 14 
hex (9 23 21 22 26 25 31 29)  (5 5 5) edgeGrading (
(
 (0.883883 6 4.82681) (0 0 1) (0 0 1) 
)
(
 (0.883883 6 4.82681) (0 0 1) (0 0 1) 
)
(
 (0.883883 6 4.82681) (0 0 1) (0 0 1) 
)
(
 (0.883883 6 4.82681) (0 0 1) (0 0 1) 
)
(
 (0 0 1) (1 5 1) (0 0 1) 
)
(
 (0 0 1) (1 5 1) (0 0 1) 
)
(
 (0 0 1) (1 5 1) (0 0 1) 
)
(
 (0 0 1) (1 5 1) (0 0 1) 
)
(
 (0 0 1) (1 5 1) (0 0 1) 
)
(
 (0 0 1) (1 5 1) (0 0 1) 
)
(
 (0 0 1) (1 5 1) (0 0 1) 
)
(
 (0 0 1) (1 5 1) (0 0 1) 
)
)
);

patches
(
     wall walls
    (
        (5 10 13 6)
        (6 13 12 7)
        (7 14 16 4)
        (4 20 10 5)
        (7 12 20 4)
        (4 16 9 5)
        (6 22 14 7)
        (5 9 22 6)
        (16 27 26 9)
        (14 28 27 16)
        (22 29 28 14)
        (9 26 29 22)
    )
     wall top
    (
        (15 19 18 11)
        (15 11 13 10)
        (11 18 12 13)
        (19 15 10 20)
        (18 19 20 12)
    )
     wall bottom
    (
        (24 25 26 27)
        (30 24 27 28)
        (31 30 28 29)
        (25 31 29 26)
        (25 24 30 31)
    )
);