
/*--------------------------------*- C++ -*----------------------------------*/

// File was generated by SwiftBlock, a Blender 3D addon.

FoamFile
{
    version     2.0;
    format      ascii;
    class       dictionary;
    object      blockMeshDict;
}
// * * * * * * * * * * * * * * * * * * * * * * * * * * * * * * * * * * * * * //

deltaT          1;

writeInterval   1;



// ************************************************************************* //


geometry
{
}
vertices
(
    (-0.5100000500679016 -0.5100000500679016 0.0)
    (0.5100000500679016 -0.5100000500679016 0.0)
    (-0.5100000500679016 0.5100000500679016 0.0)
    (0.5100000500679016 0.5100000500679016 0.0)
    (-1.3600000143051147 1.3600000143051147 0.0)
    (-1.3600000143051147 -1.3600000143051147 0.0)
    (1.3600000143051147 -1.3600000143051147 0.0)
    (1.3600000143051147 1.3600000143051147 0.0)
    (0.2550000250339508 0.2550000250339508 -2.0)
    (-0.6800000071525574 -0.6800000071525574 -2.0)
    (-1.3600000143051147 -1.3600000143051147 2.0)
    (0.5100000500679016 -0.5100000500679016 2.0)
    (1.3600000143051147 1.3600000143051147 2.0)
    (1.3600000143051147 -1.3600000143051147 2.0)
    (0.6800000071525574 0.6800000071525574 -2.0)
    (-0.5100000500679016 -0.5100000500679016 2.0)
    (-0.6800000071525574 0.6800000071525574 -2.0)
    (-0.2550000250339508 0.2550000250339508 -2.0)
    (0.5100000500679016 0.5100000500679016 2.0)
    (-0.5100000500679016 0.5100000500679016 2.0)
    (-1.3600000143051147 1.3600000143051147 2.0)
    (0.2550000250339508 -0.2550000250339508 -2.0)
    (0.6800000071525574 -0.6800000071525574 -2.0)
    (-0.2550000250339508 -0.2550000250339508 -2.0)
    (-0.2550000250339508 0.2550000250339508 -4.0)
    (-0.2550000250339508 -0.2550000250339508 -4.0)
    (-0.6800000071525574 -0.6800000071525574 -4.0)
    (-0.6800000071525574 0.6800000071525574 -4.0)
    (0.6800000071525574 0.6800000071525574 -4.0)
    (0.6800000071525574 -0.6800000071525574 -4.0)
    (0.2550000250339508 0.2550000250339508 -4.0)
    (0.2550000250339508 -0.2550000250339508 -4.0)
);
edges
(
);
faces
(
);
blocks
(
// block id 0 
hex (15 19 18 11 0 2 3 1)  (5 5 5) edgeGrading (
(
 (0 0 1) (1 5 1) (0 0 1) 
)
(
 (0 0 1) (1 5 1) (0 0 1) 
)
(
 (0 0 1) (1 5 1) (0 0 1) 
)
(
 (0 0 1) (1 5 1) (0 0 1) 
)
(
 (0 0 1) (1 5 1) (0 0 1) 
)
(
 (0 0 1) (1 5 1) (0 0 1) 
)
(
 (0 0 1) (1 5 1) (0 0 1) 
)
(
 (0 0 1) (1 5 1) (0 0 1) 
)
(
 (0 0 1) (1 5 1) (0 0 1) 
)
(
 (0 0 1) (1 5 1) (0 0 1) 
)
(
 (0 0 1) (1 5 1) (0 0 1) 
)
(
 (0 0 1) (1 5 1) (0 0 1) 
)
)
// block id 1 
hex (0 2 3 1 23 17 8 21)  (5 5 5) edgeGrading (
(
 (0 0 1) (1 5 1) (0 0 1) 
)
(
 (0 0 1) (1 5 1) (0 0 1) 
)
(
 (0 0 1) (1 5 1) (0 0 1) 
)
(
 (0 0 1) (1 5 1) (0 0 1) 
)
(
 (0 0 1) (1 5 1) (0 0 1) 
)
(
 (0 0 1) (1 5 1) (0 0 1) 
)
(
 (0 0 1) (1 5 1) (0 0 1) 
)
(
 (0 0 1) (1 5 1) (0 0 1) 
)
(
 (0 0 1) (1 5 1) (0 0 1) 
)
(
 (0 0 1) (1 5 1) (0 0 1) 
)
(
 (0 0 1) (1 5 1) (0 0 1) 
)
(
 (0 0 1) (1 5 1) (0 0 1) 
)
)
// block id 2 
hex (15 11 13 10 0 1 6 5)  (5 5 5) edgeGrading (
(
 (0 0 1) (1 5 1) (0 0 1) 
)
(
 (0 0 1) (1 5 1) (0 0 1) 
)
(
 (0 0 1) (1 5 1) (0 0 1) 
)
(
 (0 0 1) (1 5 1) (0 0 1) 
)
(
 (0 0 1) (1 5 1) (0 0 1) 
)
(
 (0 0 1) (1 5 1) (0 0 1) 
)
(
 (0 0 1) (1 5 1) (0 0 1) 
)
(
 (0 0 1) (1 5 1) (0 0 1) 
)
(
 (0 0 1) (1 5 1) (0 0 1) 
)
(
 (0 0 1) (1 5 1) (0 0 1) 
)
(
 (0 0 1) (1 5 1) (0 0 1) 
)
(
 (0 0 1) (1 5 1) (0 0 1) 
)
)
// block id 3 
hex (0 1 6 5 23 21 22 9)  (5 5 5) edgeGrading (
(
 (0 0 1) (1 5 1) (0 0 1) 
)
(
 (0 0 1) (1 5 1) (0 0 1) 
)
(
 (0 0 1) (1 5 1) (0 0 1) 
)
(
 (0 0 1) (1 5 1) (0 0 1) 
)
(
 (0 0 1) (1 5 1) (0 0 1) 
)
(
 (0 0 1) (1 5 1) (0 0 1) 
)
(
 (0 0 1) (1 5 1) (0 0 1) 
)
(
 (0 0 1) (1 5 1) (0 0 1) 
)
(
 (0 0 1) (1 5 1) (0 0 1) 
)
(
 (0 0 1) (1 5 1) (0 0 1) 
)
(
 (0 0 1) (1 5 1) (0 0 1) 
)
(
 (0 0 1) (1 5 1) (0 0 1) 
)
)
// block id 4 
hex (0 2 4 5 15 19 20 10)  (5 5 5) edgeGrading (
(
 (0 0 1) (1 5 1) (0 0 1) 
)
(
 (0 0 1) (1 5 1) (0 0 1) 
)
(
 (0 0 1) (1 5 1) (0 0 1) 
)
(
 (0 0 1) (1 5 1) (0 0 1) 
)
(
 (0 0 1) (1 5 1) (0 0 1) 
)
(
 (0 0 1) (1 5 1) (0 0 1) 
)
(
 (0 0 1) (1 5 1) (0 0 1) 
)
(
 (0 0 1) (1 5 1) (0 0 1) 
)
(
 (0 0 1) (1 5 1) (0 0 1) 
)
(
 (0 0 1) (1 5 1) (0 0 1) 
)
(
 (0 0 1) (1 5 1) (0 0 1) 
)
(
 (0 0 1) (1 5 1) (0 0 1) 
)
)
// block id 5 
hex (23 17 16 9 0 2 4 5)  (5 5 5) edgeGrading (
(
 (0 0 1) (1 5 1) (0 0 1) 
)
(
 (0 0 1) (1 5 1) (0 0 1) 
)
(
 (0 0 1) (1 5 1) (0 0 1) 
)
(
 (0 0 1) (1 5 1) (0 0 1) 
)
(
 (0 0 1) (1 5 1) (0 0 1) 
)
(
 (0 0 1) (1 5 1) (0 0 1) 
)
(
 (0 0 1) (1 5 1) (0 0 1) 
)
(
 (0 0 1) (1 5 1) (0 0 1) 
)
(
 (0 0 1) (1 5 1) (0 0 1) 
)
(
 (0 0 1) (1 5 1) (0 0 1) 
)
(
 (0 0 1) (1 5 1) (0 0 1) 
)
(
 (0 0 1) (1 5 1) (0 0 1) 
)
)
// block id 6 
hex (1 3 7 6 21 8 14 22)  (5 5 5) edgeGrading (
(
 (0 0 1) (1 5 1) (0 0 1) 
)
(
 (0 0 1) (1 5 1) (0 0 1) 
)
(
 (0 0 1) (1 5 1) (0 0 1) 
)
(
 (0 0 1) (1 5 1) (0 0 1) 
)
(
 (0 0 1) (1 5 1) (0 0 1) 
)
(
 (0 0 1) (1 5 1) (0 0 1) 
)
(
 (0 0 1) (1 5 1) (0 0 1) 
)
(
 (0 0 1) (1 5 1) (0 0 1) 
)
(
 (0 0 1) (1 5 1) (0 0 1) 
)
(
 (0 0 1) (1 5 1) (0 0 1) 
)
(
 (0 0 1) (1 5 1) (0 0 1) 
)
(
 (0 0 1) (1 5 1) (0 0 1) 
)
)
// block id 7 
hex (11 18 12 13 1 3 7 6)  (5 5 5) edgeGrading (
(
 (0 0 1) (1 5 1) (0 0 1) 
)
(
 (0 0 1) (1 5 1) (0 0 1) 
)
(
 (0 0 1) (1 5 1) (0 0 1) 
)
(
 (0 0 1) (1 5 1) (0 0 1) 
)
(
 (0 0 1) (1 5 1) (0 0 1) 
)
(
 (0 0 1) (1 5 1) (0 0 1) 
)
(
 (0 0 1) (1 5 1) (0 0 1) 
)
(
 (0 0 1) (1 5 1) (0 0 1) 
)
(
 (0 0 1) (1 5 1) (0 0 1) 
)
(
 (0 0 1) (1 5 1) (0 0 1) 
)
(
 (0 0 1) (1 5 1) (0 0 1) 
)
(
 (0 0 1) (1 5 1) (0 0 1) 
)
)
// block id 8 
hex (17 8 14 16 2 3 7 4)  (5 5 5) edgeGrading (
(
 (0 0 1) (1 5 1) (0 0 1) 
)
(
 (0 0 1) (1 5 1) (0 0 1) 
)
(
 (0 0 1) (1 5 1) (0 0 1) 
)
(
 (0 0 1) (1 5 1) (0 0 1) 
)
(
 (0 0 1) (1 5 1) (0 0 1) 
)
(
 (0 0 1) (1 5 1) (0 0 1) 
)
(
 (0 0 1) (1 5 1) (0 0 1) 
)
(
 (0 0 1) (1 5 1) (0 0 1) 
)
(
 (0 0 1) (1 5 1) (0 0 1) 
)
(
 (0 0 1) (1 5 1) (0 0 1) 
)
(
 (0 0 1) (1 5 1) (0 0 1) 
)
(
 (0 0 1) (1 5 1) (0 0 1) 
)
)
// block id 9 
hex (2 3 7 4 19 18 12 20)  (5 5 5) edgeGrading (
(
 (0 0 1) (1 5 1) (0 0 1) 
)
(
 (0 0 1) (1 5 1) (0 0 1) 
)
(
 (0 0 1) (1 5 1) (0 0 1) 
)
(
 (0 0 1) (1 5 1) (0 0 1) 
)
(
 (0 0 1) (1 5 1) (0 0 1) 
)
(
 (0 0 1) (1 5 1) (0 0 1) 
)
(
 (0 0 1) (1 5 1) (0 0 1) 
)
(
 (0 0 1) (1 5 1) (0 0 1) 
)
(
 (0 0 1) (1 5 1) (0 0 1) 
)
(
 (0 0 1) (1 5 1) (0 0 1) 
)
(
 (0 0 1) (1 5 1) (0 0 1) 
)
(
 (0 0 1) (1 5 1) (0 0 1) 
)
)
// block id 10 
hex (30 28 27 24 8 14 16 17)  (5 5 5) edgeGrading (
(
 (0 0 1) (1 5 1) (0 0 1) 
)
(
 (0 0 1) (1 5 1) (0 0 1) 
)
(
 (0 0 1) (1 5 1) (0 0 1) 
)
(
 (0 0 1) (1 5 1) (0 0 1) 
)
(
 (0 0 1) (1 5 1) (0 0 1) 
)
(
 (0 0 1) (1 5 1) (0 0 1) 
)
(
 (0 0 1) (1 5 1) (0 0 1) 
)
(
 (0 0 1) (1 5 1) (0 0 1) 
)
(
 (0 0 1) (1 5 1) (0 0 1) 
)
(
 (0 0 1) (1 5 1) (0 0 1) 
)
(
 (0 0 1) (1 5 1) (0 0 1) 
)
(
 (0 0 1) (1 5 1) (0 0 1) 
)
)
// block id 11 
hex (8 14 22 21 30 28 29 31)  (5 5 5) edgeGrading (
(
 (0 0 1) (1 5 1) (0 0 1) 
)
(
 (0 0 1) (1 5 1) (0 0 1) 
)
(
 (0 0 1) (1 5 1) (0 0 1) 
)
(
 (0 0 1) (1 5 1) (0 0 1) 
)
(
 (0 0 1) (1 5 1) (0 0 1) 
)
(
 (0 0 1) (1 5 1) (0 0 1) 
)
(
 (0 0 1) (1 5 1) (0 0 1) 
)
(
 (0 0 1) (1 5 1) (0 0 1) 
)
(
 (0 0 1) (1 5 1) (0 0 1) 
)
(
 (0 0 1) (1 5 1) (0 0 1) 
)
(
 (0 0 1) (1 5 1) (0 0 1) 
)
(
 (0 0 1) (1 5 1) (0 0 1) 
)
)
// block id 12 
hex (8 21 23 17 30 31 25 24)  (5 5 5) edgeGrading (
(
 (0 0 1) (1 5 1) (0 0 1) 
)
(
 (0 0 1) (1 5 1) (0 0 1) 
)
(
 (0 0 1) (1 5 1) (0 0 1) 
)
(
 (0 0 1) (1 5 1) (0 0 1) 
)
(
 (0 0 1) (1 5 1) (0 0 1) 
)
(
 (0 0 1) (1 5 1) (0 0 1) 
)
(
 (0 0 1) (1 5 1) (0 0 1) 
)
(
 (0 0 1) (1 5 1) (0 0 1) 
)
(
 (0 0 1) (1 5 1) (0 0 1) 
)
(
 (0 0 1) (1 5 1) (0 0 1) 
)
(
 (0 0 1) (1 5 1) (0 0 1) 
)
(
 (0 0 1) (1 5 1) (0 0 1) 
)
)
// block id 13 
hex (26 25 24 27 9 23 17 16)  (5 5 5) edgeGrading (
(
 (0 0 1) (1 5 1) (0 0 1) 
)
(
 (0 0 1) (1 5 1) (0 0 1) 
)
(
 (0 0 1) (1 5 1) (0 0 1) 
)
(
 (0 0 1) (1 5 1) (0 0 1) 
)
(
 (0 0 1) (1 5 1) (0 0 1) 
)
(
 (0 0 1) (1 5 1) (0 0 1) 
)
(
 (0 0 1) (1 5 1) (0 0 1) 
)
(
 (0 0 1) (1 5 1) (0 0 1) 
)
(
 (0 0 1) (1 5 1) (0 0 1) 
)
(
 (0 0 1) (1 5 1) (0 0 1) 
)
(
 (0 0 1) (1 5 1) (0 0 1) 
)
(
 (0 0 1) (1 5 1) (0 0 1) 
)
)
// block id 14 
hex (9 23 21 22 26 25 31 29)  (5 5 5) edgeGrading (
(
 (0 0 1) (1 5 1) (0 0 1) 
)
(
 (0 0 1) (1 5 1) (0 0 1) 
)
(
 (0 0 1) (1 5 1) (0 0 1) 
)
(
 (0 0 1) (1 5 1) (0 0 1) 
)
(
 (0 0 1) (1 5 1) (0 0 1) 
)
(
 (0 0 1) (1 5 1) (0 0 1) 
)
(
 (0 0 1) (1 5 1) (0 0 1) 
)
(
 (0 0 1) (1 5 1) (0 0 1) 
)
(
 (0 0 1) (1 5 1) (0 0 1) 
)
(
 (0 0 1) (1 5 1) (0 0 1) 
)
(
 (0 0 1) (1 5 1) (0 0 1) 
)
(
 (0 0 1) (1 5 1) (0 0 1) 
)
)
);

patches
(
     wall walls
    (
        (5 10 13 6)
        (6 13 12 7)
        (7 14 16 4)
        (4 20 10 5)
        (7 12 20 4)
        (4 16 9 5)
        (6 22 14 7)
        (5 9 22 6)
        (16 27 26 9)
        (14 28 27 16)
        (22 29 28 14)
        (9 26 29 22)
    )
     wall top
    (
        (15 19 18 11)
        (15 11 13 10)
        (11 18 12 13)
        (19 15 10 20)
        (18 19 20 12)
    )
     wall bottom
    (
        (24 25 26 27)
        (30 24 27 28)
        (31 30 28 29)
        (25 31 29 26)
        (25 24 30 31)
    )
);